
  Mrv1551102232211292D          

 44 44  0  0  0  0            999 V2000
   -0.7590    3.3259    0.0000 C   0  0  0  0  0  0  0  0  0  0  0  0
   -0.0445    3.7384    0.0000 C   0  0  0  0  0  0  0  0  0  0  0  0
   -0.0445    4.5634    0.0000 C   0  0  0  0  0  0  0  0  0  0  0  0
    0.6699    4.9759    0.0000 C   0  0  0  0  0  0  0  0  0  0  0  0
    0.6699    5.8009    0.0000 C   0  0  0  0  0  0  0  0  0  0  0  0
   -0.0445    6.2134    0.0000 O   0  0  0  0  0  0  0  0  0  0  0  0
    1.3844    6.2134    0.0000 N   0  0  0  0  0  0  0  0  0  0  0  0
    1.3844    7.0384    0.0000 O   0  0  0  0  0  0  0  0  0  0  0  0
    0.6699    3.3259    0.0000 C   0  0  0  0  0  0  0  0  0  0  0  0
    0.6699    2.5009    0.0000 C   0  0  0  0  0  0  0  0  0  0  0  0
   -0.0445    2.0884    0.0000 C   0  0  0  0  0  0  0  0  0  0  0  0
    1.3844    2.0884    0.0000 C   0  0  0  0  0  0  0  0  0  0  0  0
    2.0989    2.5009    0.0000 O   0  0  0  0  0  0  0  0  0  0  0  0
    1.3844    1.2634    0.0000 C   0  0  0  0  0  0  0  0  0  0  0  0
    2.0989    0.8509    0.0000 C   0  0  0  0  0  0  0  0  0  0  0  0
    2.0989    0.0259    0.0000 C   0  0  0  0  0  0  0  0  0  0  0  0
    1.3844   -0.3866    0.0000 C   0  0  0  0  0  0  0  0  0  0  0  0
    1.3844   -1.2116    0.0000 N   0  0  0  0  0  0  0  0  0  0  0  0
    2.0989   -1.6241    0.0000 C   0  0  0  0  0  0  0  0  0  0  0  0
    0.6699   -1.6241    0.0000 C   0  0  0  0  0  0  0  0  0  0  0  0
    0.6699    0.0259    0.0000 C   0  0  0  0  0  0  0  0  0  0  0  0
    0.6699    0.8509    0.0000 C   0  0  0  0  0  0  0  0  0  0  0  0
   -1.1715    4.0403    0.0000 H   0  0  0  0  0  0  0  0  0  0  0  0
   -1.4735    2.9134    0.0000 H   0  0  0  0  0  0  0  0  0  0  0  0
   -0.3465    2.6114    0.0000 H   0  0  0  0  0  0  0  0  0  0  0  0
   -0.7590    4.1509    0.0000 H   0  0  0  0  0  0  0  0  0  0  0  0
   -0.4570    5.2778    0.0000 H   0  0  0  0  0  0  0  0  0  0  0  0
    1.3844    4.5634    0.0000 H   0  0  0  0  0  0  0  0  0  0  0  0
    2.0989    5.8009    0.0000 H   0  0  0  0  0  0  0  0  0  0  0  0
    2.0989    7.4509    0.0000 H   0  0  0  0  0  0  0  0  0  0  0  0
    1.3844    3.7384    0.0000 H   0  0  0  0  0  0  0  0  0  0  0  0
   -0.8625    1.9807    0.0000 H   0  0  0  0  0  0  0  0  0  0  0  0
   -0.2581    1.2915    0.0000 H   0  0  0  0  0  0  0  0  0  0  0  0
    0.6100    1.5861    0.0000 H   0  0  0  0  0  0  0  0  0  0  0  0
    2.8134    1.2634    0.0000 H   0  0  0  0  0  0  0  0  0  0  0  0
    2.8134   -0.3866    0.0000 H   0  0  0  0  0  0  0  0  0  0  0  0
    1.6864   -2.3386    0.0000 H   0  0  0  0  0  0  0  0  0  0  0  0
    2.8134   -2.0366    0.0000 H   0  0  0  0  0  0  0  0  0  0  0  0
    2.5114   -0.9097    0.0000 H   0  0  0  0  0  0  0  0  0  0  0  0
    0.2574   -0.9097    0.0000 H   0  0  0  0  0  0  0  0  0  0  0  0
   -0.0445   -2.0366    0.0000 H   0  0  0  0  0  0  0  0  0  0  0  0
    1.0824   -2.3386    0.0000 H   0  0  0  0  0  0  0  0  0  0  0  0
   -0.0445   -0.3866    0.0000 H   0  0  0  0  0  0  0  0  0  0  0  0
   -0.1544    0.8173    0.0000 H   0  0  0  0  0  0  0  0  0  0  0  0
  1  2  1  0  0  0  0
  3  2  1  4  0  0  0
  3  4  2  0  0  0  0
  4  5  1  0  0  0  0
  5  6  2  0  0  0  0
  5  7  1  0  0  0  0
  7  8  1  0  0  0  0
  9  2  1  4  0  0  0
  9 10  2  0  0  0  0
 10 11  1  0  0  0  0
 10 12  1  0  0  0  0
 12 13  2  0  0  0  0
 12 14  1  0  0  0  0
 14 15  4  0  0  0  0
 15 16  4  0  0  0  0
 16 17  4  0  0  0  0
 17 18  1  0  0  0  0
 18 19  1  0  0  0  0
 18 20  1  0  0  0  0
 17 21  4  0  0  0  0
 21 22  4  0  0  0  0
 14 22  4  0  0  0  0
  1 23  1  0  0  0  0
  1 24  1  0  0  0  0
  1 25  1  0  0  0  0
  2 26  1  0  0  0  0
  3 27  1  0  0  0  0
  4 28  1  0  0  0  0
  7 29  1  0  0  0  0
  8 30  1  0  0  0  0
  9 31  1  0  0  0  0
 11 32  1  0  0  0  0
 11 33  1  0  0  0  0
 11 34  1  0  0  0  0
 15 35  1  0  0  0  0
 16 36  1  0  0  0  0
 19 37  1  0  0  0  0
 19 38  1  0  0  0  0
 19 39  1  0  0  0  0
 20 40  1  0  0  0  0
 20 41  1  0  0  0  0
 20 42  1  0  0  0  0
 21 43  1  0  0  0  0
 22 44  1  0  0  0  0
M  END
>  <Molecule ChEMBL ID>
CHEMBL99

>  <Compound Key>
1b, TSA

>  <Active>
1

>  <StandardizerResult>
Dearomatize (ID: Dearomatize)
Clear Stereo (ID: ClearStereo)
Remove Absolute Stereo (ID: RemoveAbsoluteStereo)
Wedge Clean (ID: WedgeClean)
Mesomerize (ID: Mesomerize)
Tautomerize (ID: Tautomerize)
Aromatize (ID: Aromatize)
Add Explicit Hydrogens (ID: AddExplicitH)
Neutralize (ID: Neutralize)
Clean 2D (ID: Clean2D)


$$$$

  Mrv1551102232211292D          

 38 40  0  0  0  0            999 V2000
    4.7812    4.4104    0.0000 O   0  0  0  0  0  0  0  0  0  0  0  0
    4.7812    3.5854    0.0000 C   0  0  0  0  0  0  0  0  0  0  0  0
    4.0668    3.1729    0.0000 C   0  0  0  0  0  0  0  0  0  0  0  0
    4.0668    2.3479    0.0000 C   0  0  0  0  0  0  0  0  0  0  0  0
    3.3523    1.9354    0.0000 C   0  0  0  0  0  0  0  0  0  0  0  0
    3.3523    1.1104    0.0000 C   0  0  0  0  0  0  0  0  0  0  0  0
    2.6378    0.6979    0.0000 C   0  0  0  0  0  0  0  0  0  0  0  0
    1.9233    1.1104    0.0000 C   0  0  0  0  0  0  0  0  0  0  0  0
    1.9233    1.9354    0.0000 C   0  0  0  0  0  0  0  0  0  0  0  0
    1.1387    2.1904    0.0000 C   0  0  0  0  0  0  0  0  0  0  0  0
    0.6538    1.5229    0.0000 C   0  0  0  0  0  0  0  0  0  0  0  0
    1.1387    0.8555    0.0000 N   0  0  0  0  0  0  0  0  0  0  0  0
    0.8838    0.0709    0.0000 S   0  0  0  0  0  0  0  0  0  0  0  0
    1.6684   -0.1841    0.0000 O   0  0  0  0  0  0  0  0  0  0  0  0
    0.0992    0.3258    0.0000 O   0  0  0  0  0  0  0  0  0  0  0  0
    0.6288   -0.7138    0.0000 C   0  0  0  0  0  0  0  0  0  0  0  0
    1.1809   -1.3269    0.0000 C   0  0  0  0  0  0  0  0  0  0  0  0
    0.9259   -2.1115    0.0000 C   0  0  0  0  0  0  0  0  0  0  0  0
    0.1190   -2.2830    0.0000 C   0  0  0  0  0  0  0  0  0  0  0  0
   -0.4331   -1.6699    0.0000 C   0  0  0  0  0  0  0  0  0  0  0  0
   -0.1781   -0.8853    0.0000 C   0  0  0  0  0  0  0  0  0  0  0  0
    2.6378    2.3479    0.0000 C   0  0  0  0  0  0  0  0  0  0  0  0
    5.4957    3.1729    0.0000 N   0  0  0  0  0  0  0  0  0  0  0  0
    6.2102    3.5854    0.0000 O   0  0  0  0  0  0  0  0  0  0  0  0
    3.3523    3.5854    0.0000 H   0  0  0  0  0  0  0  0  0  0  0  0
    4.7812    1.9354    0.0000 H   0  0  0  0  0  0  0  0  0  0  0  0
    4.0668    0.6979    0.0000 H   0  0  0  0  0  0  0  0  0  0  0  0
    2.6378   -0.1271    0.0000 H   0  0  0  0  0  0  0  0  0  0  0  0
    0.8838    2.9750    0.0000 H   0  0  0  0  0  0  0  0  0  0  0  0
   -0.1712    1.5229    0.0000 H   0  0  0  0  0  0  0  0  0  0  0  0
    1.9878   -1.1553    0.0000 H   0  0  0  0  0  0  0  0  0  0  0  0
    1.4780   -2.7246    0.0000 H   0  0  0  0  0  0  0  0  0  0  0  0
   -0.1360   -3.0676    0.0000 H   0  0  0  0  0  0  0  0  0  0  0  0
   -1.2400   -1.8414    0.0000 H   0  0  0  0  0  0  0  0  0  0  0  0
   -0.7302   -0.2722    0.0000 H   0  0  0  0  0  0  0  0  0  0  0  0
    2.6378    3.1729    0.0000 H   0  0  0  0  0  0  0  0  0  0  0  0
    5.4957    2.3479    0.0000 H   0  0  0  0  0  0  0  0  0  0  0  0
    6.9246    3.1729    0.0000 H   0  0  0  0  0  0  0  0  0  0  0  0
  1  2  2  0  0  0  0
  3  2  1  4  0  0  0
  3  4  2  0  0  0  0
  4  5  1  0  0  0  0
  5  6  4  0  0  0  0
  6  7  4  0  0  0  0
  7  8  4  0  0  0  0
  8  9  4  0  0  0  0
  9 10  4  0  0  0  0
 10 11  4  0  0  0  0
 11 12  4  0  0  0  0
  8 12  4  0  0  0  0
 12 13  1  0  0  0  0
 13 14  2  0  0  0  0
 13 15  2  0  0  0  0
 13 16  1  0  0  0  0
 16 17  4  0  0  0  0
 17 18  4  0  0  0  0
 18 19  4  0  0  0  0
 19 20  4  0  0  0  0
 20 21  4  0  0  0  0
 16 21  4  0  0  0  0
  9 22  4  0  0  0  0
  5 22  4  0  0  0  0
  2 23  1  0  0  0  0
 23 24  1  0  0  0  0
  3 25  1  0  0  0  0
  4 26  1  0  0  0  0
  6 27  1  0  0  0  0
  7 28  1  0  0  0  0
 10 29  1  0  0  0  0
 11 30  1  0  0  0  0
 17 31  1  0  0  0  0
 18 32  1  0  0  0  0
 19 33  1  0  0  0  0
 20 34  1  0  0  0  0
 21 35  1  0  0  0  0
 22 36  1  0  0  0  0
 23 37  1  0  0  0  0
 24 38  1  0  0  0  0
M  END
>  <Molecule ChEMBL ID>
CHEMBL2048746

>  <Compound Key>
8, MPT0E014

>  <Active>
1

>  <StandardizerResult>
Dearomatize (ID: Dearomatize)
Clear Stereo (ID: ClearStereo)
Wedge Clean (ID: WedgeClean)
Mesomerize (ID: Mesomerize)
Tautomerize (ID: Tautomerize)
Aromatize (ID: Aromatize)
Add Explicit Hydrogens (ID: AddExplicitH)
Neutralize (ID: Neutralize)
Clean 2D (ID: Clean2D)


$$$$

  Mrv1551102232211292D          

 55 57  0  0  0  0            999 V2000
    4.5196   -4.7792    0.0000 O   0  0  0  0  0  0  0  0  0  0  0  0
    4.5196   -5.6042    0.0000 C   0  0  0  0  0  0  0  0  0  0  0  0
    3.8051   -6.0167    0.0000 C   0  0  0  0  0  0  0  0  0  0  0  0
    3.0907   -5.6042    0.0000 C   0  0  0  0  0  0  0  0  0  0  0  0
    2.3762   -6.0167    0.0000 C   0  0  0  0  0  0  0  0  0  0  0  0
    1.6617   -5.6042    0.0000 C   0  0  0  0  0  0  0  0  0  0  0  0
    0.9473   -6.0167    0.0000 C   0  0  0  0  0  0  0  0  0  0  0  0
    0.2328   -5.6042    0.0000 C   0  0  0  0  0  0  0  0  0  0  0  0
   -0.4817   -6.0167    0.0000 C   0  0  0  0  0  0  0  0  0  0  0  0
   -0.4817   -6.8417    0.0000 O   0  0  0  0  0  0  0  0  0  0  0  0
   -1.1962   -5.6042    0.0000 N   0  0  0  0  0  0  0  0  0  0  0  0
   -1.9106   -6.0167    0.0000 C   0  0  0  0  0  0  0  0  0  0  0  0
   -1.9106   -6.8417    0.0000 C   0  0  0  0  0  0  0  0  0  0  0  0
   -2.6251   -7.2542    0.0000 C   0  0  0  0  0  0  0  0  0  0  0  0
   -3.3396   -6.8417    0.0000 C   0  0  0  0  0  0  0  0  0  0  0  0
   -3.3396   -6.0167    0.0000 C   0  0  0  0  0  0  0  0  0  0  0  0
   -4.0540   -5.6042    0.0000 C   0  0  0  0  0  0  0  0  0  0  0  0
   -4.8077   -5.9398    0.0000 C   0  0  0  0  0  0  0  0  0  0  0  0
   -5.3597   -5.3267    0.0000 N   0  0  0  0  0  0  0  0  0  0  0  0
   -6.1802   -5.4129    0.0000 C   0  0  0  0  0  0  0  0  0  0  0  0
   -6.5158   -6.1666    0.0000 C   0  0  0  0  0  0  0  0  0  0  0  0
   -7.3363   -6.2528    0.0000 C   0  0  0  0  0  0  0  0  0  0  0  0
   -7.6718   -7.0065    0.0000 F   0  0  0  0  0  0  0  0  0  0  0  0
   -7.8212   -5.5854    0.0000 C   0  0  0  0  0  0  0  0  0  0  0  0
   -7.4856   -4.8317    0.0000 C   0  0  0  0  0  0  0  0  0  0  0  0
   -7.9706   -4.1643    0.0000 F   0  0  0  0  0  0  0  0  0  0  0  0
   -6.6651   -4.7455    0.0000 C   0  0  0  0  0  0  0  0  0  0  0  0
   -4.9472   -4.6122    0.0000 N   0  0  0  0  0  0  0  0  0  0  0  0
   -4.1403   -4.7837    0.0000 N   0  0  0  0  0  0  0  0  0  0  0  0
   -2.6251   -5.6042    0.0000 C   0  0  0  0  0  0  0  0  0  0  0  0
    5.2341   -6.0167    0.0000 N   0  0  0  0  0  0  0  0  0  0  0  0
    5.9486   -5.6042    0.0000 O   0  0  0  0  0  0  0  0  0  0  0  0
    3.4349   -6.7540    0.0000 H   0  0  0  0  0  0  0  0  0  0  0  0
    4.1754   -6.7540    0.0000 H   0  0  0  0  0  0  0  0  0  0  0  0
    3.4609   -4.8670    0.0000 H   0  0  0  0  0  0  0  0  0  0  0  0
    2.7204   -4.8670    0.0000 H   0  0  0  0  0  0  0  0  0  0  0  0
    2.0059   -6.7540    0.0000 H   0  0  0  0  0  0  0  0  0  0  0  0
    2.7465   -6.7540    0.0000 H   0  0  0  0  0  0  0  0  0  0  0  0
    2.0320   -4.8670    0.0000 H   0  0  0  0  0  0  0  0  0  0  0  0
    1.2915   -4.8670    0.0000 H   0  0  0  0  0  0  0  0  0  0  0  0
    0.5770   -6.7540    0.0000 H   0  0  0  0  0  0  0  0  0  0  0  0
    1.3175   -6.7540    0.0000 H   0  0  0  0  0  0  0  0  0  0  0  0
    0.6030   -4.8670    0.0000 H   0  0  0  0  0  0  0  0  0  0  0  0
   -0.1375   -4.8670    0.0000 H   0  0  0  0  0  0  0  0  0  0  0  0
   -1.1962   -4.7792    0.0000 H   0  0  0  0  0  0  0  0  0  0  0  0
   -1.1962   -7.2542    0.0000 H   0  0  0  0  0  0  0  0  0  0  0  0
   -2.6251   -8.0792    0.0000 H   0  0  0  0  0  0  0  0  0  0  0  0
   -4.0540   -7.2542    0.0000 H   0  0  0  0  0  0  0  0  0  0  0  0
   -4.9792   -6.7467    0.0000 H   0  0  0  0  0  0  0  0  0  0  0  0
   -6.0309   -6.8340    0.0000 H   0  0  0  0  0  0  0  0  0  0  0  0
   -8.6417   -5.6716    0.0000 H   0  0  0  0  0  0  0  0  0  0  0  0
   -6.3296   -3.9918    0.0000 H   0  0  0  0  0  0  0  0  0  0  0  0
   -2.6251   -4.7792    0.0000 H   0  0  0  0  0  0  0  0  0  0  0  0
    5.2341   -6.8417    0.0000 H   0  0  0  0  0  0  0  0  0  0  0  0
    6.6630   -6.0167    0.0000 H   0  0  0  0  0  0  0  0  0  0  0  0
  1  2  2  0  0  0  0
  2  3  1  0  0  0  0
  3  4  1  0  0  0  0
  4  5  1  0  0  0  0
  5  6  1  0  0  0  0
  6  7  1  0  0  0  0
  7  8  1  0  0  0  0
  8  9  1  0  0  0  0
  9 10  2  0  0  0  0
  9 11  1  0  0  0  0
 11 12  1  0  0  0  0
 12 13  4  0  0  0  0
 13 14  4  0  0  0  0
 14 15  4  0  0  0  0
 15 16  4  0  0  0  0
 16 17  1  0  0  0  0
 17 18  4  0  0  0  0
 18 19  4  0  0  0  0
 19 20  1  0  0  0  0
 20 21  4  0  0  0  0
 21 22  4  0  0  0  0
 22 23  1  0  0  0  0
 22 24  4  0  0  0  0
 24 25  4  0  0  0  0
 25 26  1  0  0  0  0
 25 27  4  0  0  0  0
 20 27  4  0  0  0  0
 19 28  4  0  0  0  0
 28 29  4  0  0  0  0
 17 29  4  0  0  0  0
 16 30  4  0  0  0  0
 12 30  4  0  0  0  0
  2 31  1  0  0  0  0
 31 32  1  0  0  0  0
  3 33  1  0  0  0  0
  3 34  1  0  0  0  0
  4 35  1  0  0  0  0
  4 36  1  0  0  0  0
  5 37  1  0  0  0  0
  5 38  1  0  0  0  0
  6 39  1  0  0  0  0
  6 40  1  0  0  0  0
  7 41  1  0  0  0  0
  7 42  1  0  0  0  0
  8 43  1  0  0  0  0
  8 44  1  0  0  0  0
 11 45  1  0  0  0  0
 13 46  1  0  0  0  0
 14 47  1  0  0  0  0
 15 48  1  0  0  0  0
 18 49  1  0  0  0  0
 21 50  1  0  0  0  0
 24 51  1  0  0  0  0
 27 52  1  0  0  0  0
 30 53  1  0  0  0  0
 31 54  1  0  0  0  0
 32 55  1  0  0  0  0
M  END
>  <Molecule ChEMBL ID>
CHEMBL1091815

>  <Compound Key>
4e

>  <Active>
1

>  <StandardizerResult>
Dearomatize (ID: Dearomatize)
Clear Stereo (ID: ClearStereo)
Wedge Clean (ID: WedgeClean)
Mesomerize (ID: Mesomerize)
Tautomerize (ID: Tautomerize)
Aromatize (ID: Aromatize)
Add Explicit Hydrogens (ID: AddExplicitH)
Neutralize (ID: Neutralize)
Clean 2D (ID: Clean2D)


$$$$

  Mrv1551102232211292D          

 63 65  0  0  0  0            999 V2000
    4.5197   -4.7790    0.0000 O   0  0  0  0  0  0  0  0  0  0  0  0
    4.5197   -5.6040    0.0000 C   0  0  0  0  0  0  0  0  0  0  0  0
    3.8053   -6.0165    0.0000 C   0  0  0  0  0  0  0  0  0  0  0  0
    3.0908   -5.6040    0.0000 C   0  0  0  0  0  0  0  0  0  0  0  0
    2.3763   -6.0165    0.0000 C   0  0  0  0  0  0  0  0  0  0  0  0
    1.6618   -5.6040    0.0000 C   0  0  0  0  0  0  0  0  0  0  0  0
    0.9474   -6.0165    0.0000 C   0  0  0  0  0  0  0  0  0  0  0  0
    0.2329   -5.6040    0.0000 C   0  0  0  0  0  0  0  0  0  0  0  0
   -0.4816   -6.0165    0.0000 C   0  0  0  0  0  0  0  0  0  0  0  0
   -0.4816   -6.8415    0.0000 O   0  0  0  0  0  0  0  0  0  0  0  0
   -1.1960   -5.6040    0.0000 N   0  0  0  0  0  0  0  0  0  0  0  0
   -1.9105   -6.0165    0.0000 C   0  0  0  0  0  0  0  0  0  0  0  0
   -1.9105   -6.8415    0.0000 C   0  0  0  0  0  0  0  0  0  0  0  0
   -2.6250   -7.2540    0.0000 C   0  0  0  0  0  0  0  0  0  0  0  0
   -3.3395   -6.8415    0.0000 C   0  0  0  0  0  0  0  0  0  0  0  0
   -3.3395   -6.0165    0.0000 C   0  0  0  0  0  0  0  0  0  0  0  0
   -4.0539   -5.6040    0.0000 C   0  0  0  0  0  0  0  0  0  0  0  0
   -4.8076   -5.9395    0.0000 C   0  0  0  0  0  0  0  0  0  0  0  0
   -5.3596   -5.3264    0.0000 N   0  0  0  0  0  0  0  0  0  0  0  0
   -6.1801   -5.4127    0.0000 C   0  0  0  0  0  0  0  0  0  0  0  0
   -6.5157   -6.1663    0.0000 C   0  0  0  0  0  0  0  0  0  0  0  0
   -7.3361   -6.2526    0.0000 C   0  0  0  0  0  0  0  0  0  0  0  0
   -7.6717   -7.0062    0.0000 C   0  0  0  0  0  0  0  0  0  0  0  0
   -8.4922   -7.0925    0.0000 O   0  0  0  0  0  0  0  0  0  0  0  0
   -7.8211   -5.5851    0.0000 C   0  0  0  0  0  0  0  0  0  0  0  0
   -7.4855   -4.8314    0.0000 C   0  0  0  0  0  0  0  0  0  0  0  0
   -7.9704   -4.1640    0.0000 C   0  0  0  0  0  0  0  0  0  0  0  0
   -7.6349   -3.4103    0.0000 O   0  0  0  0  0  0  0  0  0  0  0  0
   -6.6650   -4.7452    0.0000 C   0  0  0  0  0  0  0  0  0  0  0  0
   -4.9471   -4.6119    0.0000 N   0  0  0  0  0  0  0  0  0  0  0  0
   -4.1402   -4.7835    0.0000 N   0  0  0  0  0  0  0  0  0  0  0  0
   -2.6250   -5.6040    0.0000 C   0  0  0  0  0  0  0  0  0  0  0  0
    5.2342   -6.0165    0.0000 N   0  0  0  0  0  0  0  0  0  0  0  0
    5.9487   -5.6040    0.0000 O   0  0  0  0  0  0  0  0  0  0  0  0
    3.4350   -6.7537    0.0000 H   0  0  0  0  0  0  0  0  0  0  0  0
    4.1755   -6.7537    0.0000 H   0  0  0  0  0  0  0  0  0  0  0  0
    3.4610   -4.8667    0.0000 H   0  0  0  0  0  0  0  0  0  0  0  0
    2.7205   -4.8667    0.0000 H   0  0  0  0  0  0  0  0  0  0  0  0
    2.0061   -6.7537    0.0000 H   0  0  0  0  0  0  0  0  0  0  0  0
    2.7466   -6.7537    0.0000 H   0  0  0  0  0  0  0  0  0  0  0  0
    2.0321   -4.8667    0.0000 H   0  0  0  0  0  0  0  0  0  0  0  0
    1.2916   -4.8667    0.0000 H   0  0  0  0  0  0  0  0  0  0  0  0
    0.5771   -6.7537    0.0000 H   0  0  0  0  0  0  0  0  0  0  0  0
    1.3176   -6.7537    0.0000 H   0  0  0  0  0  0  0  0  0  0  0  0
    0.6032   -4.8667    0.0000 H   0  0  0  0  0  0  0  0  0  0  0  0
   -0.1374   -4.8667    0.0000 H   0  0  0  0  0  0  0  0  0  0  0  0
   -1.1960   -4.7790    0.0000 H   0  0  0  0  0  0  0  0  0  0  0  0
   -1.1960   -7.2540    0.0000 H   0  0  0  0  0  0  0  0  0  0  0  0
   -2.6250   -8.0790    0.0000 H   0  0  0  0  0  0  0  0  0  0  0  0
   -4.0539   -7.2540    0.0000 H   0  0  0  0  0  0  0  0  0  0  0  0
   -4.9791   -6.7465    0.0000 H   0  0  0  0  0  0  0  0  0  0  0  0
   -6.0307   -6.8338    0.0000 H   0  0  0  0  0  0  0  0  0  0  0  0
   -7.5379   -7.8203    0.0000 H   0  0  0  0  0  0  0  0  0  0  0  0
   -6.9388   -7.3851    0.0000 H   0  0  0  0  0  0  0  0  0  0  0  0
   -8.9771   -6.4250    0.0000 H   0  0  0  0  0  0  0  0  0  0  0  0
   -8.6416   -5.6714    0.0000 H   0  0  0  0  0  0  0  0  0  0  0  0
   -8.7423   -3.8728    0.0000 H   0  0  0  0  0  0  0  0  0  0  0  0
   -8.6649   -4.6093    0.0000 H   0  0  0  0  0  0  0  0  0  0  0  0
   -6.8144   -3.3241    0.0000 H   0  0  0  0  0  0  0  0  0  0  0  0
   -6.3295   -3.9915    0.0000 H   0  0  0  0  0  0  0  0  0  0  0  0
   -2.6250   -4.7790    0.0000 H   0  0  0  0  0  0  0  0  0  0  0  0
    5.2342   -6.8415    0.0000 H   0  0  0  0  0  0  0  0  0  0  0  0
    6.6631   -6.0165    0.0000 H   0  0  0  0  0  0  0  0  0  0  0  0
  1  2  2  0  0  0  0
  2  3  1  0  0  0  0
  3  4  1  0  0  0  0
  4  5  1  0  0  0  0
  5  6  1  0  0  0  0
  6  7  1  0  0  0  0
  7  8  1  0  0  0  0
  8  9  1  0  0  0  0
  9 10  2  0  0  0  0
  9 11  1  0  0  0  0
 11 12  1  0  0  0  0
 12 13  4  0  0  0  0
 13 14  4  0  0  0  0
 14 15  4  0  0  0  0
 15 16  4  0  0  0  0
 16 17  1  0  0  0  0
 17 18  4  0  0  0  0
 18 19  4  0  0  0  0
 19 20  1  0  0  0  0
 20 21  4  0  0  0  0
 21 22  4  0  0  0  0
 22 23  1  0  0  0  0
 23 24  1  0  0  0  0
 22 25  4  0  0  0  0
 25 26  4  0  0  0  0
 26 27  1  0  0  0  0
 27 28  1  0  0  0  0
 26 29  4  0  0  0  0
 20 29  4  0  0  0  0
 19 30  4  0  0  0  0
 30 31  4  0  0  0  0
 17 31  4  0  0  0  0
 16 32  4  0  0  0  0
 12 32  4  0  0  0  0
  2 33  1  0  0  0  0
 33 34  1  0  0  0  0
  3 35  1  0  0  0  0
  3 36  1  0  0  0  0
  4 37  1  0  0  0  0
  4 38  1  0  0  0  0
  5 39  1  0  0  0  0
  5 40  1  0  0  0  0
  6 41  1  0  0  0  0
  6 42  1  0  0  0  0
  7 43  1  0  0  0  0
  7 44  1  0  0  0  0
  8 45  1  0  0  0  0
  8 46  1  0  0  0  0
 11 47  1  0  0  0  0
 13 48  1  0  0  0  0
 14 49  1  0  0  0  0
 15 50  1  0  0  0  0
 18 51  1  0  0  0  0
 21 52  1  0  0  0  0
 23 53  1  0  0  0  0
 23 54  1  0  0  0  0
 24 55  1  0  0  0  0
 25 56  1  0  0  0  0
 27 57  1  0  0  0  0
 27 58  1  0  0  0  0
 28 59  1  0  0  0  0
 29 60  1  0  0  0  0
 32 61  1  0  0  0  0
 33 62  1  0  0  0  0
 34 63  1  0  0  0  0
M  END
>  <Molecule ChEMBL ID>
CHEMBL1088736

>  <Compound Key>
4g

>  <Active>
1

>  <StandardizerResult>
Dearomatize (ID: Dearomatize)
Clear Stereo (ID: ClearStereo)
Wedge Clean (ID: WedgeClean)
Mesomerize (ID: Mesomerize)
Tautomerize (ID: Tautomerize)
Aromatize (ID: Aromatize)
Add Explicit Hydrogens (ID: AddExplicitH)
Neutralize (ID: Neutralize)
Clean 2D (ID: Clean2D)


$$$$

  Mrv1551102232211292D          

 57 59  0  0  0  0            999 V2000
   -1.6377   -5.1768    0.0000 N   0  0  0  0  0  0  0  0  0  0  0  0
   -1.1528   -4.5094    0.0000 C   0  0  0  0  0  0  0  0  0  0  0  0
   -1.4884   -3.7557    0.0000 C   0  0  0  0  0  0  0  0  0  0  0  0
   -1.0034   -3.0882    0.0000 C   0  0  0  0  0  0  0  0  0  0  0  0
   -0.1829   -3.1745    0.0000 C   0  0  0  0  0  0  0  0  0  0  0  0
    0.3020   -2.5070    0.0000 N   0  0  0  0  0  0  0  0  0  0  0  0
    0.0470   -1.7224    0.0000 C   0  0  0  0  0  0  0  0  0  0  0  0
    0.7145   -1.2375    0.0000 C   0  0  0  0  0  0  0  0  0  0  0  0
    0.7145   -0.4125    0.0000 C   0  0  0  0  0  0  0  0  0  0  0  0
    0.0000    0.0000    0.0000 C   0  0  0  0  0  0  0  0  0  0  0  0
    0.0000    0.8250    0.0000 C   0  0  0  0  0  0  0  0  0  0  0  0
    0.7145    1.2375    0.0000 C   0  0  0  0  0  0  0  0  0  0  0  0
    1.4289    0.8250    0.0000 C   0  0  0  0  0  0  0  0  0  0  0  0
    2.1434    1.2375    0.0000 N   0  0  0  0  0  0  0  0  0  0  0  0
    2.8579    0.8250    0.0000 C   0  0  0  0  0  0  0  0  0  0  0  0
    2.8579    0.0000    0.0000 O   0  0  0  0  0  0  0  0  0  0  0  0
    3.5724    1.2375    0.0000 C   0  0  0  0  0  0  0  0  0  0  0  0
    4.2868    0.8250    0.0000 C   0  0  0  0  0  0  0  0  0  0  0  0
    5.0013    1.2375    0.0000 C   0  0  0  0  0  0  0  0  0  0  0  0
    5.7158    0.8250    0.0000 C   0  0  0  0  0  0  0  0  0  0  0  0
    6.4302    1.2375    0.0000 C   0  0  0  0  0  0  0  0  0  0  0  0
    7.1447    0.8250    0.0000 C   0  0  0  0  0  0  0  0  0  0  0  0
    7.8592    1.2375    0.0000 C   0  0  0  0  0  0  0  0  0  0  0  0
    7.8592    2.0625    0.0000 O   0  0  0  0  0  0  0  0  0  0  0  0
    8.5737    0.8250    0.0000 N   0  0  0  0  0  0  0  0  0  0  0  0
    9.2881    1.2375    0.0000 O   0  0  0  0  0  0  0  0  0  0  0  0
    1.4289    0.0000    0.0000 C   0  0  0  0  0  0  0  0  0  0  0  0
    1.3819   -1.7224    0.0000 N   0  0  0  0  0  0  0  0  0  0  0  0
    1.1270   -2.5070    0.0000 N   0  0  0  0  0  0  0  0  0  0  0  0
    0.1526   -3.9282    0.0000 C   0  0  0  0  0  0  0  0  0  0  0  0
   -0.3323   -4.5956    0.0000 C   0  0  0  0  0  0  0  0  0  0  0  0
   -2.4582   -5.0906    0.0000 H   0  0  0  0  0  0  0  0  0  0  0  0
   -1.3022   -5.9305    0.0000 H   0  0  0  0  0  0  0  0  0  0  0  0
   -2.3088   -3.6694    0.0000 H   0  0  0  0  0  0  0  0  0  0  0  0
   -1.3390   -2.3346    0.0000 H   0  0  0  0  0  0  0  0  0  0  0  0
   -0.7376   -1.4675    0.0000 H   0  0  0  0  0  0  0  0  0  0  0  0
   -0.7145   -0.4125    0.0000 H   0  0  0  0  0  0  0  0  0  0  0  0
   -0.7145    1.2375    0.0000 H   0  0  0  0  0  0  0  0  0  0  0  0
    0.7145    2.0625    0.0000 H   0  0  0  0  0  0  0  0  0  0  0  0
    2.1434    2.0625    0.0000 H   0  0  0  0  0  0  0  0  0  0  0  0
    3.9426    1.9747    0.0000 H   0  0  0  0  0  0  0  0  0  0  0  0
    3.2021    1.9747    0.0000 H   0  0  0  0  0  0  0  0  0  0  0  0
    3.9166    0.0878    0.0000 H   0  0  0  0  0  0  0  0  0  0  0  0
    4.6571    0.0878    0.0000 H   0  0  0  0  0  0  0  0  0  0  0  0
    5.3716    1.9747    0.0000 H   0  0  0  0  0  0  0  0  0  0  0  0
    4.6310    1.9747    0.0000 H   0  0  0  0  0  0  0  0  0  0  0  0
    5.3455    0.0878    0.0000 H   0  0  0  0  0  0  0  0  0  0  0  0
    6.0860    0.0878    0.0000 H   0  0  0  0  0  0  0  0  0  0  0  0
    6.8005    1.9747    0.0000 H   0  0  0  0  0  0  0  0  0  0  0  0
    6.0600    1.9747    0.0000 H   0  0  0  0  0  0  0  0  0  0  0  0
    6.7745    0.0878    0.0000 H   0  0  0  0  0  0  0  0  0  0  0  0
    7.5150    0.0878    0.0000 H   0  0  0  0  0  0  0  0  0  0  0  0
    8.5737    0.0000    0.0000 H   0  0  0  0  0  0  0  0  0  0  0  0
   10.0026    0.8250    0.0000 H   0  0  0  0  0  0  0  0  0  0  0  0
    2.1434   -0.4125    0.0000 H   0  0  0  0  0  0  0  0  0  0  0  0
    0.9731   -4.0144    0.0000 H   0  0  0  0  0  0  0  0  0  0  0  0
    0.0032   -5.3493    0.0000 H   0  0  0  0  0  0  0  0  0  0  0  0
  1  2  1  0  0  0  0
  2  3  4  0  0  0  0
  3  4  4  0  0  0  0
  4  5  4  0  0  0  0
  5  6  1  0  0  0  0
  6  7  4  0  0  0  0
  7  8  4  0  0  0  0
  8  9  1  0  0  0  0
  9 10  4  0  0  0  0
 10 11  4  0  0  0  0
 11 12  4  0  0  0  0
 12 13  4  0  0  0  0
 13 14  1  0  0  0  0
 14 15  1  0  0  0  0
 15 16  2  0  0  0  0
 15 17  1  0  0  0  0
 17 18  1  0  0  0  0
 18 19  1  0  0  0  0
 19 20  1  0  0  0  0
 20 21  1  0  0  0  0
 21 22  1  0  0  0  0
 22 23  1  0  0  0  0
 23 24  2  0  0  0  0
 23 25  1  0  0  0  0
 25 26  1  0  0  0  0
 13 27  4  0  0  0  0
  9 27  4  0  0  0  0
  8 28  4  0  0  0  0
 28 29  4  0  0  0  0
  6 29  4  0  0  0  0
  5 30  4  0  0  0  0
 30 31  4  0  0  0  0
  2 31  4  0  0  0  0
  1 32  1  0  0  0  0
  1 33  1  0  0  0  0
  3 34  1  0  0  0  0
  4 35  1  0  0  0  0
  7 36  1  0  0  0  0
 10 37  1  0  0  0  0
 11 38  1  0  0  0  0
 12 39  1  0  0  0  0
 14 40  1  0  0  0  0
 17 41  1  0  0  0  0
 17 42  1  0  0  0  0
 18 43  1  0  0  0  0
 18 44  1  0  0  0  0
 19 45  1  0  0  0  0
 19 46  1  0  0  0  0
 20 47  1  0  0  0  0
 20 48  1  0  0  0  0
 21 49  1  0  0  0  0
 21 50  1  0  0  0  0
 22 51  1  0  0  0  0
 22 52  1  0  0  0  0
 25 53  1  0  0  0  0
 26 54  1  0  0  0  0
 27 55  1  0  0  0  0
 30 56  1  0  0  0  0
 31 57  1  0  0  0  0
M  END
>  <Molecule ChEMBL ID>
CHEMBL1094708

>  <Compound Key>
4l

>  <Active>
1

>  <StandardizerResult>
Dearomatize (ID: Dearomatize)
Clear Stereo (ID: ClearStereo)
Wedge Clean (ID: WedgeClean)
Mesomerize (ID: Mesomerize)
Tautomerize (ID: Tautomerize)
Aromatize (ID: Aromatize)
Add Explicit Hydrogens (ID: AddExplicitH)
Neutralize (ID: Neutralize)
Clean 2D (ID: Clean2D)


$$$$

  Mrv1551102232211292D          

 47 48  0  0  0  0            999 V2000
   -1.1528    1.6295    0.0000 N   0  0  0  0  0  0  0  0  0  0  0  0
   -0.6679    2.2969    0.0000 C   0  0  0  0  0  0  0  0  0  0  0  0
   -1.0034    3.0506    0.0000 C   0  0  0  0  0  0  0  0  0  0  0  0
   -0.5185    3.7180    0.0000 C   0  0  0  0  0  0  0  0  0  0  0  0
    0.3020    3.6318    0.0000 C   0  0  0  0  0  0  0  0  0  0  0  0
    0.6375    2.8781    0.0000 C   0  0  0  0  0  0  0  0  0  0  0  0
    1.4580    2.7919    0.0000 C   0  0  0  0  0  0  0  0  0  0  0  0
    2.0100    3.4050    0.0000 C   0  0  0  0  0  0  0  0  0  0  0  0
    2.7637    3.0694    0.0000 C   0  0  0  0  0  0  0  0  0  0  0  0
    3.4782    3.4819    0.0000 C   0  0  0  0  0  0  0  0  0  0  0  0
    3.4782    4.3069    0.0000 O   0  0  0  0  0  0  0  0  0  0  0  0
    4.1927    3.0694    0.0000 N   0  0  0  0  0  0  0  0  0  0  0  0
    4.9071    3.4819    0.0000 C   0  0  0  0  0  0  0  0  0  0  0  0
    5.6216    3.0694    0.0000 C   0  0  0  0  0  0  0  0  0  0  0  0
    6.3361    3.4819    0.0000 C   0  0  0  0  0  0  0  0  0  0  0  0
    7.0505    3.0694    0.0000 C   0  0  0  0  0  0  0  0  0  0  0  0
    7.7650    3.4819    0.0000 C   0  0  0  0  0  0  0  0  0  0  0  0
    8.4795    3.0694    0.0000 C   0  0  0  0  0  0  0  0  0  0  0  0
    9.1940    3.4819    0.0000 C   0  0  0  0  0  0  0  0  0  0  0  0
    9.1940    4.3069    0.0000 O   0  0  0  0  0  0  0  0  0  0  0  0
    9.9084    3.0694    0.0000 N   0  0  0  0  0  0  0  0  0  0  0  0
   10.6229    3.4819    0.0000 O   0  0  0  0  0  0  0  0  0  0  0  0
    2.6775    2.2489    0.0000 N   0  0  0  0  0  0  0  0  0  0  0  0
    1.8705    2.0774    0.0000 O   0  0  0  0  0  0  0  0  0  0  0  0
    0.1526    2.2107    0.0000 C   0  0  0  0  0  0  0  0  0  0  0  0
   -1.9733    1.7157    0.0000 H   0  0  0  0  0  0  0  0  0  0  0  0
   -0.8172    0.8758    0.0000 H   0  0  0  0  0  0  0  0  0  0  0  0
   -1.8239    3.1368    0.0000 H   0  0  0  0  0  0  0  0  0  0  0  0
   -0.8541    4.4717    0.0000 H   0  0  0  0  0  0  0  0  0  0  0  0
    0.7869    4.2992    0.0000 H   0  0  0  0  0  0  0  0  0  0  0  0
    1.8385    4.2119    0.0000 H   0  0  0  0  0  0  0  0  0  0  0  0
    4.1927    2.2444    0.0000 H   0  0  0  0  0  0  0  0  0  0  0  0
    5.2774    4.2192    0.0000 H   0  0  0  0  0  0  0  0  0  0  0  0
    4.5369    4.2192    0.0000 H   0  0  0  0  0  0  0  0  0  0  0  0
    5.2513    2.3322    0.0000 H   0  0  0  0  0  0  0  0  0  0  0  0
    5.9919    2.3322    0.0000 H   0  0  0  0  0  0  0  0  0  0  0  0
    6.7063    4.2192    0.0000 H   0  0  0  0  0  0  0  0  0  0  0  0
    5.9658    4.2192    0.0000 H   0  0  0  0  0  0  0  0  0  0  0  0
    6.6803    2.3322    0.0000 H   0  0  0  0  0  0  0  0  0  0  0  0
    7.4208    2.3322    0.0000 H   0  0  0  0  0  0  0  0  0  0  0  0
    8.1353    4.2192    0.0000 H   0  0  0  0  0  0  0  0  0  0  0  0
    7.3948    4.2192    0.0000 H   0  0  0  0  0  0  0  0  0  0  0  0
    8.1092    2.3322    0.0000 H   0  0  0  0  0  0  0  0  0  0  0  0
    8.8497    2.3322    0.0000 H   0  0  0  0  0  0  0  0  0  0  0  0
    9.9084    2.2444    0.0000 H   0  0  0  0  0  0  0  0  0  0  0  0
   11.3374    3.0694    0.0000 H   0  0  0  0  0  0  0  0  0  0  0  0
    0.4882    1.4570    0.0000 H   0  0  0  0  0  0  0  0  0  0  0  0
  1  2  1  0  0  0  0
  2  3  4  0  0  0  0
  3  4  4  0  0  0  0
  4  5  4  0  0  0  0
  5  6  4  0  0  0  0
  6  7  1  0  0  0  0
  7  8  4  0  0  0  0
  8  9  4  0  0  0  0
  9 10  1  0  0  0  0
 10 11  2  0  0  0  0
 10 12  1  0  0  0  0
 12 13  1  0  0  0  0
 13 14  1  0  0  0  0
 14 15  1  0  0  0  0
 15 16  1  0  0  0  0
 16 17  1  0  0  0  0
 17 18  1  0  0  0  0
 18 19  1  0  0  0  0
 19 20  2  0  0  0  0
 19 21  1  0  0  0  0
 21 22  1  0  0  0  0
  9 23  4  0  0  0  0
 23 24  4  0  0  0  0
  7 24  4  0  0  0  0
  6 25  4  0  0  0  0
  2 25  4  0  0  0  0
  1 26  1  0  0  0  0
  1 27  1  0  0  0  0
  3 28  1  0  0  0  0
  4 29  1  0  0  0  0
  5 30  1  0  0  0  0
  8 31  1  0  0  0  0
 12 32  1  0  0  0  0
 13 33  1  0  0  0  0
 13 34  1  0  0  0  0
 14 35  1  0  0  0  0
 14 36  1  0  0  0  0
 15 37  1  0  0  0  0
 15 38  1  0  0  0  0
 16 39  1  0  0  0  0
 16 40  1  0  0  0  0
 17 41  1  0  0  0  0
 17 42  1  0  0  0  0
 18 43  1  0  0  0  0
 18 44  1  0  0  0  0
 21 45  1  0  0  0  0
 22 46  1  0  0  0  0
 25 47  1  0  0  0  0
M  END
>  <Molecule ChEMBL ID>
CHEMBL468595

>  <Compound Key>
5

>  <Active>
1

>  <StandardizerResult>
Dearomatize (ID: Dearomatize)
Clear Stereo (ID: ClearStereo)
Wedge Clean (ID: WedgeClean)
Mesomerize (ID: Mesomerize)
Tautomerize (ID: Tautomerize)
Aromatize (ID: Aromatize)
Add Explicit Hydrogens (ID: AddExplicitH)
Neutralize (ID: Neutralize)
Clean 2D (ID: Clean2D)


$$$$

  Mrv1551102232211292D          

 61 65  0  0  0  0            999 V2000
    7.3141    6.4792    0.0000 O   0  0  0  0  0  0  0  0  0  0  0  0
    7.3141    5.6542    0.0000 C   0  0  0  0  0  0  0  0  0  0  0  0
    6.5996    5.2417    0.0000 C   0  0  0  0  0  0  0  0  0  0  0  0
    5.8852    5.6542    0.0000 C   0  0  0  0  0  0  0  0  0  0  0  0
    5.1707    5.2417    0.0000 C   0  0  0  0  0  0  0  0  0  0  0  0
    4.4562    5.6542    0.0000 C   0  0  0  0  0  0  0  0  0  0  0  0
    3.7417    5.2417    0.0000 C   0  0  0  0  0  0  0  0  0  0  0  0
    3.0273    5.6542    0.0000 N   0  0  0  0  0  0  0  0  0  0  0  0
    2.2736    5.3186    0.0000 C   0  0  0  0  0  0  0  0  0  0  0  0
    1.7216    5.9317    0.0000 C   0  0  0  0  0  0  0  0  0  0  0  0
    0.9011    5.8455    0.0000 C   0  0  0  0  0  0  0  0  0  0  0  0
    0.5655    5.0918    0.0000 C   0  0  0  0  0  0  0  0  0  0  0  0
   -0.2550    5.0056    0.0000 C   0  0  0  0  0  0  0  0  0  0  0  0
   -0.7399    5.6730    0.0000 C   0  0  0  0  0  0  0  0  0  0  0  0
   -1.5604    5.5868    0.0000 N   0  0  0  0  0  0  0  0  0  0  0  0
   -2.0453    6.2542    0.0000 C   0  0  0  0  0  0  0  0  0  0  0  0
   -2.8658    6.1680    0.0000 C   0  0  0  0  0  0  0  0  0  0  0  0
   -3.2013    5.4143    0.0000 C   0  0  0  0  0  0  0  0  0  0  0  0
   -4.0218    5.3281    0.0000 C   0  0  0  0  0  0  0  0  0  0  0  0
   -4.5067    5.9955    0.0000 C   0  0  0  0  0  0  0  0  0  0  0  0
   -4.1712    6.7492    0.0000 C   0  0  0  0  0  0  0  0  0  0  0  0
   -3.3507    6.8354    0.0000 C   0  0  0  0  0  0  0  0  0  0  0  0
   -3.0151    7.5891    0.0000 N   0  0  0  0  0  0  0  0  0  0  0  0
   -2.1946    7.6753    0.0000 C   0  0  0  0  0  0  0  0  0  0  0  0
   -1.8591    8.4290    0.0000 C   0  0  0  0  0  0  0  0  0  0  0  0
   -1.0386    8.5152    0.0000 C   0  0  0  0  0  0  0  0  0  0  0  0
   -0.5537    7.8478    0.0000 C   0  0  0  0  0  0  0  0  0  0  0  0
   -0.8892    7.0941    0.0000 C   0  0  0  0  0  0  0  0  0  0  0  0
   -1.7097    7.0079    0.0000 C   0  0  0  0  0  0  0  0  0  0  0  0
   -0.4043    6.4267    0.0000 C   0  0  0  0  0  0  0  0  0  0  0  0
    0.4162    6.5129    0.0000 C   0  0  0  0  0  0  0  0  0  0  0  0
    2.1341    6.6462    0.0000 N   0  0  0  0  0  0  0  0  0  0  0  0
    2.9410    6.4747    0.0000 N   0  0  0  0  0  0  0  0  0  0  0  0
    8.0286    5.2417    0.0000 N   0  0  0  0  0  0  0  0  0  0  0  0
    8.7430    5.6542    0.0000 O   0  0  0  0  0  0  0  0  0  0  0  0
    6.2294    4.5044    0.0000 H   0  0  0  0  0  0  0  0  0  0  0  0
    6.9699    4.5044    0.0000 H   0  0  0  0  0  0  0  0  0  0  0  0
    6.2554    6.3914    0.0000 H   0  0  0  0  0  0  0  0  0  0  0  0
    5.5149    6.3914    0.0000 H   0  0  0  0  0  0  0  0  0  0  0  0
    4.8004    4.5044    0.0000 H   0  0  0  0  0  0  0  0  0  0  0  0
    5.5409    4.5044    0.0000 H   0  0  0  0  0  0  0  0  0  0  0  0
    4.8265    6.3914    0.0000 H   0  0  0  0  0  0  0  0  0  0  0  0
    4.0860    6.3914    0.0000 H   0  0  0  0  0  0  0  0  0  0  0  0
    3.3715    4.5044    0.0000 H   0  0  0  0  0  0  0  0  0  0  0  0
    4.1120    4.5044    0.0000 H   0  0  0  0  0  0  0  0  0  0  0  0
    2.1021    4.5117    0.0000 H   0  0  0  0  0  0  0  0  0  0  0  0
    1.0505    4.4244    0.0000 H   0  0  0  0  0  0  0  0  0  0  0  0
   -0.5905    4.2519    0.0000 H   0  0  0  0  0  0  0  0  0  0  0  0
   -1.8959    4.8331    0.0000 H   0  0  0  0  0  0  0  0  0  0  0  0
   -2.7164    4.7469    0.0000 H   0  0  0  0  0  0  0  0  0  0  0  0
   -4.3574    4.5744    0.0000 H   0  0  0  0  0  0  0  0  0  0  0  0
   -5.3272    5.9093    0.0000 H   0  0  0  0  0  0  0  0  0  0  0  0
   -4.6561    7.4166    0.0000 H   0  0  0  0  0  0  0  0  0  0  0  0
   -2.3440    9.0964    0.0000 H   0  0  0  0  0  0  0  0  0  0  0  0
   -0.7030    9.2689    0.0000 H   0  0  0  0  0  0  0  0  0  0  0  0
    0.2668    7.9340    0.0000 H   0  0  0  0  0  0  0  0  0  0  0  0
   -1.2248    6.3404    0.0000 H   0  0  0  0  0  0  0  0  0  0  0  0
   -0.0688    7.1804    0.0000 H   0  0  0  0  0  0  0  0  0  0  0  0
    1.0836    6.9978    0.0000 H   0  0  0  0  0  0  0  0  0  0  0  0
    8.0286    4.4167    0.0000 H   0  0  0  0  0  0  0  0  0  0  0  0
    9.4575    5.2417    0.0000 H   0  0  0  0  0  0  0  0  0  0  0  0
  1  2  2  0  0  0  0
  2  3  1  0  0  0  0
  3  4  1  0  0  0  0
  4  5  1  0  0  0  0
  5  6  1  0  0  0  0
  6  7  1  0  0  0  0
  7  8  1  0  0  0  0
  8  9  4  0  0  0  0
  9 10  4  0  0  0  0
 10 11  1  0  0  0  0
 11 12  4  0  0  0  0
 12 13  4  0  0  0  0
 13 14  4  0  0  0  0
 14 15  1  0  0  0  0
 15 16  1  0  0  0  0
 16 17  4  0  0  0  0
 17 18  4  0  0  0  0
 18 19  4  0  0  0  0
 19 20  4  0  0  0  0
 20 21  4  0  0  0  0
 21 22  4  0  0  0  0
 17 22  4  0  0  0  0
 22 23  4  0  0  0  0
 23 24  4  0  0  0  0
 24 25  4  0  0  0  0
 25 26  4  0  0  0  0
 26 27  4  0  0  0  0
 27 28  4  0  0  0  0
 28 29  4  0  0  0  0
 16 29  4  0  0  0  0
 24 29  4  0  0  0  0
 14 30  4  0  0  0  0
 30 31  4  0  0  0  0
 11 31  4  0  0  0  0
 10 32  4  0  0  0  0
 32 33  4  0  0  0  0
  8 33  4  0  0  0  0
  2 34  1  0  0  0  0
 34 35  1  0  0  0  0
  3 36  1  0  0  0  0
  3 37  1  0  0  0  0
  4 38  1  0  0  0  0
  4 39  1  0  0  0  0
  5 40  1  0  0  0  0
  5 41  1  0  0  0  0
  6 42  1  0  0  0  0
  6 43  1  0  0  0  0
  7 44  1  0  0  0  0
  7 45  1  0  0  0  0
  9 46  1  0  0  0  0
 12 47  1  0  0  0  0
 13 48  1  0  0  0  0
 15 49  1  0  0  0  0
 18 50  1  0  0  0  0
 19 51  1  0  0  0  0
 20 52  1  0  0  0  0
 21 53  1  0  0  0  0
 25 54  1  0  0  0  0
 26 55  1  0  0  0  0
 27 56  1  0  0  0  0
 28 57  1  0  0  0  0
 30 58  1  0  0  0  0
 31 59  1  0  0  0  0
 34 60  1  0  0  0  0
 35 61  1  0  0  0  0
M  END
>  <Molecule ChEMBL ID>
CHEMBL4237410

>  <Compound Key>
8a

>  <Active>
1

>  <StandardizerResult>
Dearomatize (ID: Dearomatize)
Clear Stereo (ID: ClearStereo)
Wedge Clean (ID: WedgeClean)
Mesomerize (ID: Mesomerize)
Tautomerize (ID: Tautomerize)
Aromatize (ID: Aromatize)
Add Explicit Hydrogens (ID: AddExplicitH)
Neutralize (ID: Neutralize)
Clean 2D (ID: Clean2D)


$$$$

  Mrv1551102232211292D          

 58 60  0  0  0  0            999 V2000
    4.5196   -4.7792    0.0000 O   0  0  0  0  0  0  0  0  0  0  0  0
    4.5196   -5.6042    0.0000 C   0  0  0  0  0  0  0  0  0  0  0  0
    3.8051   -6.0167    0.0000 C   0  0  0  0  0  0  0  0  0  0  0  0
    3.0907   -5.6042    0.0000 C   0  0  0  0  0  0  0  0  0  0  0  0
    2.3762   -6.0167    0.0000 C   0  0  0  0  0  0  0  0  0  0  0  0
    1.6617   -5.6042    0.0000 C   0  0  0  0  0  0  0  0  0  0  0  0
    0.9473   -6.0167    0.0000 C   0  0  0  0  0  0  0  0  0  0  0  0
    0.2328   -5.6042    0.0000 C   0  0  0  0  0  0  0  0  0  0  0  0
   -0.4817   -6.0167    0.0000 C   0  0  0  0  0  0  0  0  0  0  0  0
   -0.4817   -6.8417    0.0000 O   0  0  0  0  0  0  0  0  0  0  0  0
   -1.1962   -5.6042    0.0000 N   0  0  0  0  0  0  0  0  0  0  0  0
   -1.9106   -6.0167    0.0000 C   0  0  0  0  0  0  0  0  0  0  0  0
   -1.9106   -6.8417    0.0000 C   0  0  0  0  0  0  0  0  0  0  0  0
   -2.6251   -7.2542    0.0000 C   0  0  0  0  0  0  0  0  0  0  0  0
   -3.3396   -6.8417    0.0000 C   0  0  0  0  0  0  0  0  0  0  0  0
   -3.3396   -6.0167    0.0000 C   0  0  0  0  0  0  0  0  0  0  0  0
   -4.0540   -5.6042    0.0000 C   0  0  0  0  0  0  0  0  0  0  0  0
   -4.8077   -5.9398    0.0000 C   0  0  0  0  0  0  0  0  0  0  0  0
   -5.3597   -5.3267    0.0000 N   0  0  0  0  0  0  0  0  0  0  0  0
   -6.1802   -5.4129    0.0000 C   0  0  0  0  0  0  0  0  0  0  0  0
   -6.5158   -6.1666    0.0000 C   0  0  0  0  0  0  0  0  0  0  0  0
   -7.3363   -6.2528    0.0000 C   0  0  0  0  0  0  0  0  0  0  0  0
   -7.8212   -5.5854    0.0000 C   0  0  0  0  0  0  0  0  0  0  0  0
   -8.6417   -5.6716    0.0000 C   0  0  0  0  0  0  0  0  0  0  0  0
   -9.4621   -5.7578    0.0000 F   0  0  0  0  0  0  0  0  0  0  0  0
   -8.5554   -6.4921    0.0000 F   0  0  0  0  0  0  0  0  0  0  0  0
   -8.7279   -4.8511    0.0000 F   0  0  0  0  0  0  0  0  0  0  0  0
   -7.4856   -4.8317    0.0000 C   0  0  0  0  0  0  0  0  0  0  0  0
   -6.6651   -4.7455    0.0000 C   0  0  0  0  0  0  0  0  0  0  0  0
   -4.9472   -4.6122    0.0000 N   0  0  0  0  0  0  0  0  0  0  0  0
   -4.1403   -4.7837    0.0000 N   0  0  0  0  0  0  0  0  0  0  0  0
   -2.6251   -5.6042    0.0000 C   0  0  0  0  0  0  0  0  0  0  0  0
    5.2341   -6.0167    0.0000 N   0  0  0  0  0  0  0  0  0  0  0  0
    5.9486   -5.6042    0.0000 O   0  0  0  0  0  0  0  0  0  0  0  0
    3.4349   -6.7540    0.0000 H   0  0  0  0  0  0  0  0  0  0  0  0
    4.1754   -6.7540    0.0000 H   0  0  0  0  0  0  0  0  0  0  0  0
    3.4609   -4.8670    0.0000 H   0  0  0  0  0  0  0  0  0  0  0  0
    2.7204   -4.8670    0.0000 H   0  0  0  0  0  0  0  0  0  0  0  0
    2.0059   -6.7540    0.0000 H   0  0  0  0  0  0  0  0  0  0  0  0
    2.7465   -6.7540    0.0000 H   0  0  0  0  0  0  0  0  0  0  0  0
    2.0320   -4.8670    0.0000 H   0  0  0  0  0  0  0  0  0  0  0  0
    1.2915   -4.8670    0.0000 H   0  0  0  0  0  0  0  0  0  0  0  0
    0.5770   -6.7540    0.0000 H   0  0  0  0  0  0  0  0  0  0  0  0
    1.3175   -6.7540    0.0000 H   0  0  0  0  0  0  0  0  0  0  0  0
    0.6031   -4.8670    0.0000 H   0  0  0  0  0  0  0  0  0  0  0  0
   -0.1375   -4.8670    0.0000 H   0  0  0  0  0  0  0  0  0  0  0  0
   -1.1962   -4.7792    0.0000 H   0  0  0  0  0  0  0  0  0  0  0  0
   -1.1962   -7.2542    0.0000 H   0  0  0  0  0  0  0  0  0  0  0  0
   -2.6251   -8.0792    0.0000 H   0  0  0  0  0  0  0  0  0  0  0  0
   -4.0540   -7.2542    0.0000 H   0  0  0  0  0  0  0  0  0  0  0  0
   -4.9792   -6.7467    0.0000 H   0  0  0  0  0  0  0  0  0  0  0  0
   -6.0309   -6.8340    0.0000 H   0  0  0  0  0  0  0  0  0  0  0  0
   -7.6718   -7.0065    0.0000 H   0  0  0  0  0  0  0  0  0  0  0  0
   -7.9705   -4.1643    0.0000 H   0  0  0  0  0  0  0  0  0  0  0  0
   -6.3296   -3.9918    0.0000 H   0  0  0  0  0  0  0  0  0  0  0  0
   -2.6251   -4.7792    0.0000 H   0  0  0  0  0  0  0  0  0  0  0  0
    5.2341   -6.8417    0.0000 H   0  0  0  0  0  0  0  0  0  0  0  0
    6.6630   -6.0167    0.0000 H   0  0  0  0  0  0  0  0  0  0  0  0
  1  2  2  0  0  0  0
  2  3  1  0  0  0  0
  3  4  1  0  0  0  0
  4  5  1  0  0  0  0
  5  6  1  0  0  0  0
  6  7  1  0  0  0  0
  7  8  1  0  0  0  0
  8  9  1  0  0  0  0
  9 10  2  0  0  0  0
  9 11  1  0  0  0  0
 11 12  1  0  0  0  0
 12 13  4  0  0  0  0
 13 14  4  0  0  0  0
 14 15  4  0  0  0  0
 15 16  4  0  0  0  0
 16 17  1  0  0  0  0
 17 18  4  0  0  0  0
 18 19  4  0  0  0  0
 19 20  1  0  0  0  0
 20 21  4  0  0  0  0
 21 22  4  0  0  0  0
 22 23  4  0  0  0  0
 23 24  1  0  0  0  0
 24 25  1  0  0  0  0
 24 26  1  0  0  0  0
 24 27  1  0  0  0  0
 23 28  4  0  0  0  0
 28 29  4  0  0  0  0
 20 29  4  0  0  0  0
 19 30  4  0  0  0  0
 30 31  4  0  0  0  0
 17 31  4  0  0  0  0
 16 32  4  0  0  0  0
 12 32  4  0  0  0  0
  2 33  1  0  0  0  0
 33 34  1  0  0  0  0
  3 35  1  0  0  0  0
  3 36  1  0  0  0  0
  4 37  1  0  0  0  0
  4 38  1  0  0  0  0
  5 39  1  0  0  0  0
  5 40  1  0  0  0  0
  6 41  1  0  0  0  0
  6 42  1  0  0  0  0
  7 43  1  0  0  0  0
  7 44  1  0  0  0  0
  8 45  1  0  0  0  0
  8 46  1  0  0  0  0
 11 47  1  0  0  0  0
 13 48  1  0  0  0  0
 14 49  1  0  0  0  0
 15 50  1  0  0  0  0
 18 51  1  0  0  0  0
 21 52  1  0  0  0  0
 22 53  1  0  0  0  0
 28 54  1  0  0  0  0
 29 55  1  0  0  0  0
 32 56  1  0  0  0  0
 33 57  1  0  0  0  0
 34 58  1  0  0  0  0
M  END
>  <Molecule ChEMBL ID>
CHEMBL1088734

>  <Compound Key>
4d

>  <Active>
1

>  <StandardizerResult>
Dearomatize (ID: Dearomatize)
Clear Stereo (ID: ClearStereo)
Wedge Clean (ID: WedgeClean)
Mesomerize (ID: Mesomerize)
Tautomerize (ID: Tautomerize)
Aromatize (ID: Aromatize)
Add Explicit Hydrogens (ID: AddExplicitH)
Neutralize (ID: Neutralize)
Clean 2D (ID: Clean2D)


$$$$

  Mrv1551102232211292D          

 47 48  0  0  0  0            999 V2000
    2.5817   -3.1591    0.0000 N   0  0  0  0  0  0  0  0  0  0  0  0
    2.0968   -2.4917    0.0000 C   0  0  0  0  0  0  0  0  0  0  0  0
    1.2763   -2.5779    0.0000 C   0  0  0  0  0  0  0  0  0  0  0  0
    0.7914   -1.9105    0.0000 C   0  0  0  0  0  0  0  0  0  0  0  0
    1.1270   -1.1568    0.0000 C   0  0  0  0  0  0  0  0  0  0  0  0
    1.9474   -1.0706    0.0000 C   0  0  0  0  0  0  0  0  0  0  0  0
    2.2830   -0.3169    0.0000 C   0  0  0  0  0  0  0  0  0  0  0  0
    1.8705    0.3976    0.0000 C   0  0  0  0  0  0  0  0  0  0  0  0
    2.4225    1.0107    0.0000 S   0  0  0  0  0  0  0  0  0  0  0  0
    3.1762    0.6751    0.0000 C   0  0  0  0  0  0  0  0  0  0  0  0
    3.8907    1.0876    0.0000 N   0  0  0  0  0  0  0  0  0  0  0  0
    4.6052    0.6751    0.0000 C   0  0  0  0  0  0  0  0  0  0  0  0
    4.6052   -0.1499    0.0000 O   0  0  0  0  0  0  0  0  0  0  0  0
    5.3196    1.0876    0.0000 C   0  0  0  0  0  0  0  0  0  0  0  0
    6.0341    0.6751    0.0000 C   0  0  0  0  0  0  0  0  0  0  0  0
    6.7486    1.0876    0.0000 C   0  0  0  0  0  0  0  0  0  0  0  0
    7.4630    0.6751    0.0000 C   0  0  0  0  0  0  0  0  0  0  0  0
    8.1775    1.0876    0.0000 C   0  0  0  0  0  0  0  0  0  0  0  0
    8.8920    0.6751    0.0000 C   0  0  0  0  0  0  0  0  0  0  0  0
    9.6065    1.0876    0.0000 C   0  0  0  0  0  0  0  0  0  0  0  0
    9.6065    1.9126    0.0000 O   0  0  0  0  0  0  0  0  0  0  0  0
   10.3209    0.6751    0.0000 N   0  0  0  0  0  0  0  0  0  0  0  0
   11.0354    1.0876    0.0000 O   0  0  0  0  0  0  0  0  0  0  0  0
    3.0900   -0.1454    0.0000 N   0  0  0  0  0  0  0  0  0  0  0  0
    2.4324   -1.7380    0.0000 C   0  0  0  0  0  0  0  0  0  0  0  0
    2.2462   -3.9128    0.0000 H   0  0  0  0  0  0  0  0  0  0  0  0
    3.4022   -3.0729    0.0000 H   0  0  0  0  0  0  0  0  0  0  0  0
    0.9408   -3.3316    0.0000 H   0  0  0  0  0  0  0  0  0  0  0  0
   -0.0291   -1.9967    0.0000 H   0  0  0  0  0  0  0  0  0  0  0  0
    0.6420   -0.4894    0.0000 H   0  0  0  0  0  0  0  0  0  0  0  0
    1.0500    0.4838    0.0000 H   0  0  0  0  0  0  0  0  0  0  0  0
    3.8907    1.9126    0.0000 H   0  0  0  0  0  0  0  0  0  0  0  0
    5.6899    1.8249    0.0000 H   0  0  0  0  0  0  0  0  0  0  0  0
    4.9494    1.8249    0.0000 H   0  0  0  0  0  0  0  0  0  0  0  0
    5.6638   -0.0621    0.0000 H   0  0  0  0  0  0  0  0  0  0  0  0
    6.4044   -0.0621    0.0000 H   0  0  0  0  0  0  0  0  0  0  0  0
    7.1188    1.8249    0.0000 H   0  0  0  0  0  0  0  0  0  0  0  0
    6.3783    1.8249    0.0000 H   0  0  0  0  0  0  0  0  0  0  0  0
    7.0928   -0.0621    0.0000 H   0  0  0  0  0  0  0  0  0  0  0  0
    7.8333   -0.0621    0.0000 H   0  0  0  0  0  0  0  0  0  0  0  0
    8.5478    1.8249    0.0000 H   0  0  0  0  0  0  0  0  0  0  0  0
    7.8073    1.8249    0.0000 H   0  0  0  0  0  0  0  0  0  0  0  0
    8.5217   -0.0621    0.0000 H   0  0  0  0  0  0  0  0  0  0  0  0
    9.2622   -0.0621    0.0000 H   0  0  0  0  0  0  0  0  0  0  0  0
   10.3209   -0.1499    0.0000 H   0  0  0  0  0  0  0  0  0  0  0  0
   11.7499    0.6751    0.0000 H   0  0  0  0  0  0  0  0  0  0  0  0
    3.2529   -1.6518    0.0000 H   0  0  0  0  0  0  0  0  0  0  0  0
  1  2  1  0  0  0  0
  2  3  4  0  0  0  0
  3  4  4  0  0  0  0
  4  5  4  0  0  0  0
  5  6  4  0  0  0  0
  6  7  1  0  0  0  0
  7  8  4  0  0  0  0
  8  9  4  0  0  0  0
  9 10  4  0  0  0  0
 10 11  1  0  0  0  0
 11 12  1  0  0  0  0
 12 13  2  0  0  0  0
 12 14  1  0  0  0  0
 14 15  1  0  0  0  0
 15 16  1  0  0  0  0
 16 17  1  0  0  0  0
 17 18  1  0  0  0  0
 18 19  1  0  0  0  0
 19 20  1  0  0  0  0
 20 21  2  0  0  0  0
 20 22  1  0  0  0  0
 22 23  1  0  0  0  0
 10 24  4  0  0  0  0
  7 24  4  0  0  0  0
  6 25  4  0  0  0  0
  2 25  4  0  0  0  0
  1 26  1  0  0  0  0
  1 27  1  0  0  0  0
  3 28  1  0  0  0  0
  4 29  1  0  0  0  0
  5 30  1  0  0  0  0
  8 31  1  0  0  0  0
 11 32  1  0  0  0  0
 14 33  1  0  0  0  0
 14 34  1  0  0  0  0
 15 35  1  0  0  0  0
 15 36  1  0  0  0  0
 16 37  1  0  0  0  0
 16 38  1  0  0  0  0
 17 39  1  0  0  0  0
 17 40  1  0  0  0  0
 18 41  1  0  0  0  0
 18 42  1  0  0  0  0
 19 43  1  0  0  0  0
 19 44  1  0  0  0  0
 22 45  1  0  0  0  0
 23 46  1  0  0  0  0
 25 47  1  0  0  0  0
M  END
>  <Molecule ChEMBL ID>
CHEMBL468935

>  <Compound Key>
4

>  <Active>
1

>  <StandardizerResult>
Dearomatize (ID: Dearomatize)
Clear Stereo (ID: ClearStereo)
Wedge Clean (ID: WedgeClean)
Mesomerize (ID: Mesomerize)
Tautomerize (ID: Tautomerize)
Aromatize (ID: Aromatize)
Add Explicit Hydrogens (ID: AddExplicitH)
Neutralize (ID: Neutralize)
Clean 2D (ID: Clean2D)


$$$$

  Mrv1551102232211292D          

 45 46  0  0  0  0            999 V2000
    3.9979   -1.8507    0.0000 O   0  0  0  0  0  0  0  0  0  0  0  0
    3.9979   -2.6757    0.0000 C   0  0  0  0  0  0  0  0  0  0  0  0
    3.2834   -3.0882    0.0000 C   0  0  0  0  0  0  0  0  0  0  0  0
    2.5689   -2.6757    0.0000 C   0  0  0  0  0  0  0  0  0  0  0  0
    1.8544   -3.0882    0.0000 C   0  0  0  0  0  0  0  0  0  0  0  0
    1.1400   -2.6757    0.0000 C   0  0  0  0  0  0  0  0  0  0  0  0
    0.4255   -3.0882    0.0000 C   0  0  0  0  0  0  0  0  0  0  0  0
   -0.2890   -2.6757    0.0000 C   0  0  0  0  0  0  0  0  0  0  0  0
   -1.0034   -3.0882    0.0000 C   0  0  0  0  0  0  0  0  0  0  0  0
   -1.0034   -3.9132    0.0000 O   0  0  0  0  0  0  0  0  0  0  0  0
   -1.7179   -2.6757    0.0000 N   0  0  0  0  0  0  0  0  0  0  0  0
   -2.4324   -3.0882    0.0000 C   0  0  0  0  0  0  0  0  0  0  0  0
   -2.5186   -3.9087    0.0000 N   0  0  0  0  0  0  0  0  0  0  0  0
   -3.3256   -4.0802    0.0000 C   0  0  0  0  0  0  0  0  0  0  0  0
   -3.6611   -4.8339    0.0000 C   0  0  0  0  0  0  0  0  0  0  0  0
   -3.1762   -5.5013    0.0000 C   0  0  0  0  0  0  0  0  0  0  0  0
   -3.5118   -6.2550    0.0000 C   0  0  0  0  0  0  0  0  0  0  0  0
   -4.3323   -6.3412    0.0000 C   0  0  0  0  0  0  0  0  0  0  0  0
   -4.8172   -5.6738    0.0000 C   0  0  0  0  0  0  0  0  0  0  0  0
   -4.4816   -4.9201    0.0000 C   0  0  0  0  0  0  0  0  0  0  0  0
   -3.7381   -3.3658    0.0000 C   0  0  0  0  0  0  0  0  0  0  0  0
   -3.1861   -2.7527    0.0000 S   0  0  0  0  0  0  0  0  0  0  0  0
    4.7123   -3.0882    0.0000 N   0  0  0  0  0  0  0  0  0  0  0  0
    5.4268   -2.6757    0.0000 O   0  0  0  0  0  0  0  0  0  0  0  0
    2.9131   -3.8255    0.0000 H   0  0  0  0  0  0  0  0  0  0  0  0
    3.6537   -3.8255    0.0000 H   0  0  0  0  0  0  0  0  0  0  0  0
    2.9392   -1.9385    0.0000 H   0  0  0  0  0  0  0  0  0  0  0  0
    2.1987   -1.9385    0.0000 H   0  0  0  0  0  0  0  0  0  0  0  0
    1.4842   -3.8255    0.0000 H   0  0  0  0  0  0  0  0  0  0  0  0
    2.2247   -3.8255    0.0000 H   0  0  0  0  0  0  0  0  0  0  0  0
    1.5102   -1.9385    0.0000 H   0  0  0  0  0  0  0  0  0  0  0  0
    0.7697   -1.9385    0.0000 H   0  0  0  0  0  0  0  0  0  0  0  0
    0.0552   -3.8255    0.0000 H   0  0  0  0  0  0  0  0  0  0  0  0
    0.7958   -3.8255    0.0000 H   0  0  0  0  0  0  0  0  0  0  0  0
    0.0813   -1.9385    0.0000 H   0  0  0  0  0  0  0  0  0  0  0  0
   -0.6592   -1.9385    0.0000 H   0  0  0  0  0  0  0  0  0  0  0  0
   -1.7179   -1.8507    0.0000 H   0  0  0  0  0  0  0  0  0  0  0  0
   -2.3557   -5.4151    0.0000 H   0  0  0  0  0  0  0  0  0  0  0  0
   -3.0269   -6.9225    0.0000 H   0  0  0  0  0  0  0  0  0  0  0  0
   -4.6678   -7.0949    0.0000 H   0  0  0  0  0  0  0  0  0  0  0  0
   -5.6377   -5.7600    0.0000 H   0  0  0  0  0  0  0  0  0  0  0  0
   -4.9665   -4.2527    0.0000 H   0  0  0  0  0  0  0  0  0  0  0  0
   -4.5586   -3.2795    0.0000 H   0  0  0  0  0  0  0  0  0  0  0  0
    4.7123   -3.9132    0.0000 H   0  0  0  0  0  0  0  0  0  0  0  0
    6.1413   -3.0882    0.0000 H   0  0  0  0  0  0  0  0  0  0  0  0
  1  2  2  0  0  0  0
  2  3  1  0  0  0  0
  3  4  1  0  0  0  0
  4  5  1  0  0  0  0
  5  6  1  0  0  0  0
  6  7  1  0  0  0  0
  7  8  1  0  0  0  0
  8  9  1  0  0  0  0
  9 10  2  0  0  0  0
  9 11  1  0  0  0  0
 11 12  1  0  0  0  0
 12 13  4  0  0  0  0
 13 14  4  0  0  0  0
 14 15  1  0  0  0  0
 15 16  4  0  0  0  0
 16 17  4  0  0  0  0
 17 18  4  0  0  0  0
 18 19  4  0  0  0  0
 19 20  4  0  0  0  0
 15 20  4  0  0  0  0
 14 21  4  0  0  0  0
 21 22  4  0  0  0  0
 12 22  4  0  0  0  0
  2 23  1  0  0  0  0
 23 24  1  0  0  0  0
  3 25  1  0  0  0  0
  3 26  1  0  0  0  0
  4 27  1  0  0  0  0
  4 28  1  0  0  0  0
  5 29  1  0  0  0  0
  5 30  1  0  0  0  0
  6 31  1  0  0  0  0
  6 32  1  0  0  0  0
  7 33  1  0  0  0  0
  7 34  1  0  0  0  0
  8 35  1  0  0  0  0
  8 36  1  0  0  0  0
 11 37  1  0  0  0  0
 16 38  1  0  0  0  0
 17 39  1  0  0  0  0
 18 40  1  0  0  0  0
 19 41  1  0  0  0  0
 20 42  1  0  0  0  0
 21 43  1  0  0  0  0
 23 44  1  0  0  0  0
 24 45  1  0  0  0  0
M  END
>  <Molecule ChEMBL ID>
CHEMBL511212

>  <Compound Key>
3

>  <Active>
1

>  <StandardizerResult>
Dearomatize (ID: Dearomatize)
Clear Stereo (ID: ClearStereo)
Wedge Clean (ID: WedgeClean)
Mesomerize (ID: Mesomerize)
Tautomerize (ID: Tautomerize)
Aromatize (ID: Aromatize)
Add Explicit Hydrogens (ID: AddExplicitH)
Neutralize (ID: Neutralize)
Clean 2D (ID: Clean2D)


$$$$

  Mrv1551102232211292D          

 55 57  0  0  0  0            999 V2000
    4.5196   -4.7792    0.0000 O   0  0  0  0  0  0  0  0  0  0  0  0
    4.5196   -5.6042    0.0000 C   0  0  0  0  0  0  0  0  0  0  0  0
    3.8051   -6.0167    0.0000 C   0  0  0  0  0  0  0  0  0  0  0  0
    3.0907   -5.6042    0.0000 C   0  0  0  0  0  0  0  0  0  0  0  0
    2.3762   -6.0167    0.0000 C   0  0  0  0  0  0  0  0  0  0  0  0
    1.6617   -5.6042    0.0000 C   0  0  0  0  0  0  0  0  0  0  0  0
    0.9473   -6.0167    0.0000 C   0  0  0  0  0  0  0  0  0  0  0  0
    0.2328   -5.6042    0.0000 C   0  0  0  0  0  0  0  0  0  0  0  0
   -0.4817   -6.0167    0.0000 C   0  0  0  0  0  0  0  0  0  0  0  0
   -0.4817   -6.8417    0.0000 O   0  0  0  0  0  0  0  0  0  0  0  0
   -1.1962   -5.6042    0.0000 N   0  0  0  0  0  0  0  0  0  0  0  0
   -1.9106   -6.0167    0.0000 C   0  0  0  0  0  0  0  0  0  0  0  0
   -1.9106   -6.8417    0.0000 C   0  0  0  0  0  0  0  0  0  0  0  0
   -2.6251   -7.2542    0.0000 C   0  0  0  0  0  0  0  0  0  0  0  0
   -3.3396   -6.8417    0.0000 C   0  0  0  0  0  0  0  0  0  0  0  0
   -3.3396   -6.0167    0.0000 C   0  0  0  0  0  0  0  0  0  0  0  0
   -4.0540   -5.6042    0.0000 N   0  0  0  0  0  0  0  0  0  0  0  0
   -4.8077   -5.9398    0.0000 C   0  0  0  0  0  0  0  0  0  0  0  0
   -5.3597   -5.3267    0.0000 C   0  0  0  0  0  0  0  0  0  0  0  0
   -6.1802   -5.4129    0.0000 C   0  0  0  0  0  0  0  0  0  0  0  0
   -6.5158   -6.1666    0.0000 C   0  0  0  0  0  0  0  0  0  0  0  0
   -7.3363   -6.2528    0.0000 C   0  0  0  0  0  0  0  0  0  0  0  0
   -7.8212   -5.5854    0.0000 C   0  0  0  0  0  0  0  0  0  0  0  0
   -7.4856   -4.8317    0.0000 C   0  0  0  0  0  0  0  0  0  0  0  0
   -6.6651   -4.7455    0.0000 C   0  0  0  0  0  0  0  0  0  0  0  0
   -4.9472   -4.6122    0.0000 N   0  0  0  0  0  0  0  0  0  0  0  0
   -4.1403   -4.7837    0.0000 N   0  0  0  0  0  0  0  0  0  0  0  0
   -2.6251   -5.6042    0.0000 C   0  0  0  0  0  0  0  0  0  0  0  0
    5.2341   -6.0167    0.0000 N   0  0  0  0  0  0  0  0  0  0  0  0
    5.9486   -5.6042    0.0000 O   0  0  0  0  0  0  0  0  0  0  0  0
    3.4349   -6.7540    0.0000 H   0  0  0  0  0  0  0  0  0  0  0  0
    4.1754   -6.7540    0.0000 H   0  0  0  0  0  0  0  0  0  0  0  0
    3.4609   -4.8670    0.0000 H   0  0  0  0  0  0  0  0  0  0  0  0
    2.7204   -4.8670    0.0000 H   0  0  0  0  0  0  0  0  0  0  0  0
    2.0059   -6.7540    0.0000 H   0  0  0  0  0  0  0  0  0  0  0  0
    2.7465   -6.7540    0.0000 H   0  0  0  0  0  0  0  0  0  0  0  0
    2.0320   -4.8670    0.0000 H   0  0  0  0  0  0  0  0  0  0  0  0
    1.2915   -4.8670    0.0000 H   0  0  0  0  0  0  0  0  0  0  0  0
    0.5770   -6.7540    0.0000 H   0  0  0  0  0  0  0  0  0  0  0  0
    1.3175   -6.7540    0.0000 H   0  0  0  0  0  0  0  0  0  0  0  0
    0.6030   -4.8670    0.0000 H   0  0  0  0  0  0  0  0  0  0  0  0
   -0.1375   -4.8670    0.0000 H   0  0  0  0  0  0  0  0  0  0  0  0
   -1.1962   -4.7792    0.0000 H   0  0  0  0  0  0  0  0  0  0  0  0
   -1.1962   -7.2542    0.0000 H   0  0  0  0  0  0  0  0  0  0  0  0
   -2.6251   -8.0792    0.0000 H   0  0  0  0  0  0  0  0  0  0  0  0
   -4.0540   -7.2542    0.0000 H   0  0  0  0  0  0  0  0  0  0  0  0
   -4.9792   -6.7467    0.0000 H   0  0  0  0  0  0  0  0  0  0  0  0
   -6.0309   -6.8340    0.0000 H   0  0  0  0  0  0  0  0  0  0  0  0
   -7.6718   -7.0065    0.0000 H   0  0  0  0  0  0  0  0  0  0  0  0
   -8.6417   -5.6716    0.0000 H   0  0  0  0  0  0  0  0  0  0  0  0
   -7.9706   -4.1643    0.0000 H   0  0  0  0  0  0  0  0  0  0  0  0
   -6.3296   -3.9918    0.0000 H   0  0  0  0  0  0  0  0  0  0  0  0
   -2.6251   -4.7792    0.0000 H   0  0  0  0  0  0  0  0  0  0  0  0
    5.2341   -6.8417    0.0000 H   0  0  0  0  0  0  0  0  0  0  0  0
    6.6630   -6.0167    0.0000 H   0  0  0  0  0  0  0  0  0  0  0  0
  1  2  2  0  0  0  0
  2  3  1  0  0  0  0
  3  4  1  0  0  0  0
  4  5  1  0  0  0  0
  5  6  1  0  0  0  0
  6  7  1  0  0  0  0
  7  8  1  0  0  0  0
  8  9  1  0  0  0  0
  9 10  2  0  0  0  0
  9 11  1  0  0  0  0
 11 12  1  0  0  0  0
 12 13  4  0  0  0  0
 13 14  4  0  0  0  0
 14 15  4  0  0  0  0
 15 16  4  0  0  0  0
 16 17  1  0  0  0  0
 17 18  4  0  0  0  0
 18 19  4  0  0  0  0
 19 20  1  0  0  0  0
 20 21  4  0  0  0  0
 21 22  4  0  0  0  0
 22 23  4  0  0  0  0
 23 24  4  0  0  0  0
 24 25  4  0  0  0  0
 20 25  4  0  0  0  0
 19 26  4  0  0  0  0
 26 27  4  0  0  0  0
 17 27  4  0  0  0  0
 16 28  4  0  0  0  0
 12 28  4  0  0  0  0
  2 29  1  0  0  0  0
 29 30  1  0  0  0  0
  3 31  1  0  0  0  0
  3 32  1  0  0  0  0
  4 33  1  0  0  0  0
  4 34  1  0  0  0  0
  5 35  1  0  0  0  0
  5 36  1  0  0  0  0
  6 37  1  0  0  0  0
  6 38  1  0  0  0  0
  7 39  1  0  0  0  0
  7 40  1  0  0  0  0
  8 41  1  0  0  0  0
  8 42  1  0  0  0  0
 11 43  1  0  0  0  0
 13 44  1  0  0  0  0
 14 45  1  0  0  0  0
 15 46  1  0  0  0  0
 18 47  1  0  0  0  0
 21 48  1  0  0  0  0
 22 49  1  0  0  0  0
 23 50  1  0  0  0  0
 24 51  1  0  0  0  0
 25 52  1  0  0  0  0
 28 53  1  0  0  0  0
 29 54  1  0  0  0  0
 30 55  1  0  0  0  0
M  END
>  <Molecule ChEMBL ID>
CHEMBL1094709

>  <Compound Key>
11a

>  <Active>
1

>  <StandardizerResult>
Dearomatize (ID: Dearomatize)
Clear Stereo (ID: ClearStereo)
Wedge Clean (ID: WedgeClean)
Mesomerize (ID: Mesomerize)
Tautomerize (ID: Tautomerize)
Aromatize (ID: Aromatize)
Add Explicit Hydrogens (ID: AddExplicitH)
Neutralize (ID: Neutralize)
Clean 2D (ID: Clean2D)


$$$$

  Mrv1551102232211292D          

 57 60  0  0  0  0            999 V2000
    7.1741   -2.8256    0.0000 O   0  0  0  0  0  0  0  0  0  0  0  0
    7.1741   -3.6506    0.0000 C   0  0  0  0  0  0  0  0  0  0  0  0
    6.4596   -4.0631    0.0000 C   0  0  0  0  0  0  0  0  0  0  0  0
    5.7451   -3.6506    0.0000 C   0  0  0  0  0  0  0  0  0  0  0  0
    5.0307   -4.0631    0.0000 C   0  0  0  0  0  0  0  0  0  0  0  0
    4.3162   -3.6506    0.0000 C   0  0  0  0  0  0  0  0  0  0  0  0
    3.6017   -4.0631    0.0000 C   0  0  0  0  0  0  0  0  0  0  0  0
    2.8873   -3.6506    0.0000 C   0  0  0  0  0  0  0  0  0  0  0  0
    2.1728   -4.0631    0.0000 N   0  0  0  0  0  0  0  0  0  0  0  0
    2.0866   -4.8836    0.0000 C   0  0  0  0  0  0  0  0  0  0  0  0
    1.2796   -5.0551    0.0000 C   0  0  0  0  0  0  0  0  0  0  0  0
    0.9440   -5.8088    0.0000 C   0  0  0  0  0  0  0  0  0  0  0  0
    1.4289   -6.4762    0.0000 C   0  0  0  0  0  0  0  0  0  0  0  0
    1.0934   -7.2299    0.0000 C   0  0  0  0  0  0  0  0  0  0  0  0
    0.2729   -7.3161    0.0000 C   0  0  0  0  0  0  0  0  0  0  0  0
   -0.0627   -8.0698    0.0000 N   0  0  0  0  0  0  0  0  0  0  0  0
   -0.8831   -8.1561    0.0000 C   0  0  0  0  0  0  0  0  0  0  0  0
   -1.3681   -7.4886    0.0000 N   0  0  0  0  0  0  0  0  0  0  0  0
   -1.0325   -6.7349    0.0000 C   0  0  0  0  0  0  0  0  0  0  0  0
   -1.5174   -6.0675    0.0000 N   0  0  0  0  0  0  0  0  0  0  0  0
   -2.3379   -6.1537    0.0000 C   0  0  0  0  0  0  0  0  0  0  0  0
   -2.6735   -6.9074    0.0000 C   0  0  0  0  0  0  0  0  0  0  0  0
   -3.4939   -6.9936    0.0000 C   0  0  0  0  0  0  0  0  0  0  0  0
   -3.9789   -6.3262    0.0000 C   0  0  0  0  0  0  0  0  0  0  0  0
   -3.6433   -5.5725    0.0000 C   0  0  0  0  0  0  0  0  0  0  0  0
   -4.1282   -4.9051    0.0000 Cl  0  0  0  0  0  0  0  0  0  0  0  0
   -2.8228   -5.4863    0.0000 C   0  0  0  0  0  0  0  0  0  0  0  0
   -2.4873   -4.7326    0.0000 F   0  0  0  0  0  0  0  0  0  0  0  0
   -0.2120   -6.6487    0.0000 C   0  0  0  0  0  0  0  0  0  0  0  0
    0.1235   -5.8950    0.0000 C   0  0  0  0  0  0  0  0  0  0  0  0
    0.8671   -4.3406    0.0000 N   0  0  0  0  0  0  0  0  0  0  0  0
    1.4191   -3.7275    0.0000 N   0  0  0  0  0  0  0  0  0  0  0  0
    7.8886   -4.0631    0.0000 N   0  0  0  0  0  0  0  0  0  0  0  0
    8.6030   -3.6506    0.0000 O   0  0  0  0  0  0  0  0  0  0  0  0
    6.0894   -4.8004    0.0000 H   0  0  0  0  0  0  0  0  0  0  0  0
    6.8299   -4.8004    0.0000 H   0  0  0  0  0  0  0  0  0  0  0  0
    6.1154   -2.9134    0.0000 H   0  0  0  0  0  0  0  0  0  0  0  0
    5.3749   -2.9134    0.0000 H   0  0  0  0  0  0  0  0  0  0  0  0
    4.6604   -4.8004    0.0000 H   0  0  0  0  0  0  0  0  0  0  0  0
    5.4009   -4.8004    0.0000 H   0  0  0  0  0  0  0  0  0  0  0  0
    4.6865   -2.9134    0.0000 H   0  0  0  0  0  0  0  0  0  0  0  0
    3.9459   -2.9134    0.0000 H   0  0  0  0  0  0  0  0  0  0  0  0
    3.2315   -4.8004    0.0000 H   0  0  0  0  0  0  0  0  0  0  0  0
    3.9720   -4.8004    0.0000 H   0  0  0  0  0  0  0  0  0  0  0  0
    3.2575   -2.9134    0.0000 H   0  0  0  0  0  0  0  0  0  0  0  0
    2.5170   -2.9134    0.0000 H   0  0  0  0  0  0  0  0  0  0  0  0
    2.6996   -5.4356    0.0000 H   0  0  0  0  0  0  0  0  0  0  0  0
    2.2494   -6.3900    0.0000 H   0  0  0  0  0  0  0  0  0  0  0  0
    1.5783   -7.8973    0.0000 H   0  0  0  0  0  0  0  0  0  0  0  0
   -1.2187   -8.9097    0.0000 H   0  0  0  0  0  0  0  0  0  0  0  0
   -1.1819   -5.3138    0.0000 H   0  0  0  0  0  0  0  0  0  0  0  0
   -2.1885   -7.5748    0.0000 H   0  0  0  0  0  0  0  0  0  0  0  0
   -3.8295   -7.7473    0.0000 H   0  0  0  0  0  0  0  0  0  0  0  0
   -4.7993   -6.4124    0.0000 H   0  0  0  0  0  0  0  0  0  0  0  0
   -0.3614   -5.2276    0.0000 H   0  0  0  0  0  0  0  0  0  0  0  0
    7.8886   -4.8881    0.0000 H   0  0  0  0  0  0  0  0  0  0  0  0
    9.3175   -4.0631    0.0000 H   0  0  0  0  0  0  0  0  0  0  0  0
  1  2  2  0  0  0  0
  2  3  1  0  0  0  0
  3  4  1  0  0  0  0
  4  5  1  0  0  0  0
  5  6  1  0  0  0  0
  6  7  1  0  0  0  0
  7  8  1  0  0  0  0
  8  9  1  0  0  0  0
  9 10  4  0  0  0  0
 10 11  4  0  0  0  0
 11 12  1  0  0  0  0
 12 13  4  0  0  0  0
 13 14  4  0  0  0  0
 14 15  4  0  0  0  0
 15 16  4  0  0  0  0
 16 17  4  0  0  0  0
 17 18  4  0  0  0  0
 18 19  4  0  0  0  0
 19 20  1  0  0  0  0
 20 21  1  0  0  0  0
 21 22  4  0  0  0  0
 22 23  4  0  0  0  0
 23 24  4  0  0  0  0
 24 25  4  0  0  0  0
 25 26  1  0  0  0  0
 25 27  4  0  0  0  0
 21 27  4  0  0  0  0
 27 28  1  0  0  0  0
 19 29  4  0  0  0  0
 15 29  4  0  0  0  0
 29 30  4  0  0  0  0
 12 30  4  0  0  0  0
 11 31  4  0  0  0  0
 31 32  4  0  0  0  0
  9 32  4  0  0  0  0
  2 33  1  0  0  0  0
 33 34  1  0  0  0  0
  3 35  1  0  0  0  0
  3 36  1  0  0  0  0
  4 37  1  0  0  0  0
  4 38  1  0  0  0  0
  5 39  1  0  0  0  0
  5 40  1  0  0  0  0
  6 41  1  0  0  0  0
  6 42  1  0  0  0  0
  7 43  1  0  0  0  0
  7 44  1  0  0  0  0
  8 45  1  0  0  0  0
  8 46  1  0  0  0  0
 10 47  1  0  0  0  0
 13 48  1  0  0  0  0
 14 49  1  0  0  0  0
 17 50  1  0  0  0  0
 20 51  1  0  0  0  0
 22 52  1  0  0  0  0
 23 53  1  0  0  0  0
 24 54  1  0  0  0  0
 30 55  1  0  0  0  0
 33 56  1  0  0  0  0
 34 57  1  0  0  0  0
M  END
>  <Molecule ChEMBL ID>
CHEMBL3930620

>  <Compound Key>
9d

>  <Active>
1

>  <StandardizerResult>
Dearomatize (ID: Dearomatize)
Clear Stereo (ID: ClearStereo)
Wedge Clean (ID: WedgeClean)
Mesomerize (ID: Mesomerize)
Tautomerize (ID: Tautomerize)
Aromatize (ID: Aromatize)
Add Explicit Hydrogens (ID: AddExplicitH)
Neutralize (ID: Neutralize)
Clean 2D (ID: Clean2D)


$$$$

  Mrv1551102232211292D          

 42 44  0  0  0  0            999 V2000
    0.4161   -5.9016    0.0000 C   0  0  0  0  0  0  0  0  0  0  0  0
   -0.1360   -5.2885    0.0000 O   0  0  0  0  0  0  0  0  0  0  0  0
    0.1190   -4.5038    0.0000 C   0  0  0  0  0  0  0  0  0  0  0  0
   -0.4331   -3.8908    0.0000 C   0  0  0  0  0  0  0  0  0  0  0  0
   -0.1781   -3.1061    0.0000 C   0  0  0  0  0  0  0  0  0  0  0  0
    0.6288   -2.9346    0.0000 C   0  0  0  0  0  0  0  0  0  0  0  0
    0.8838   -2.1500    0.0000 S   0  0  0  0  0  0  0  0  0  0  0  0
    1.6684   -2.4049    0.0000 O   0  0  0  0  0  0  0  0  0  0  0  0
    0.0992   -1.8950    0.0000 O   0  0  0  0  0  0  0  0  0  0  0  0
    1.1387   -1.3654    0.0000 N   0  0  0  0  0  0  0  0  0  0  0  0
    0.6538   -0.6979    0.0000 C   0  0  0  0  0  0  0  0  0  0  0  0
    1.1387   -0.0305    0.0000 C   0  0  0  0  0  0  0  0  0  0  0  0
    1.9233   -0.2854    0.0000 C   0  0  0  0  0  0  0  0  0  0  0  0
    2.6378    0.1271    0.0000 C   0  0  0  0  0  0  0  0  0  0  0  0
    3.3523   -0.2854    0.0000 C   0  0  0  0  0  0  0  0  0  0  0  0
    4.0668    0.1271    0.0000 C   0  0  0  0  0  0  0  0  0  0  0  0
    4.7812   -0.2854    0.0000 C   0  0  0  0  0  0  0  0  0  0  0  0
    5.4957    0.1271    0.0000 C   0  0  0  0  0  0  0  0  0  0  0  0
    5.4957    0.9521    0.0000 O   0  0  0  0  0  0  0  0  0  0  0  0
    6.2102   -0.2854    0.0000 N   0  0  0  0  0  0  0  0  0  0  0  0
    6.9246    0.1271    0.0000 O   0  0  0  0  0  0  0  0  0  0  0  0
    3.3523   -1.1104    0.0000 C   0  0  0  0  0  0  0  0  0  0  0  0
    2.6378   -1.5229    0.0000 C   0  0  0  0  0  0  0  0  0  0  0  0
    1.9233   -1.1104    0.0000 C   0  0  0  0  0  0  0  0  0  0  0  0
    1.1809   -3.5477    0.0000 C   0  0  0  0  0  0  0  0  0  0  0  0
    0.9259   -4.3323    0.0000 C   0  0  0  0  0  0  0  0  0  0  0  0
   -0.1970   -6.4536    0.0000 H   0  0  0  0  0  0  0  0  0  0  0  0
    0.9681   -6.5147    0.0000 H   0  0  0  0  0  0  0  0  0  0  0  0
    1.0292   -5.3495    0.0000 H   0  0  0  0  0  0  0  0  0  0  0  0
   -1.2400   -4.0623    0.0000 H   0  0  0  0  0  0  0  0  0  0  0  0
   -0.7302   -2.4930    0.0000 H   0  0  0  0  0  0  0  0  0  0  0  0
   -0.1712   -0.6979    0.0000 H   0  0  0  0  0  0  0  0  0  0  0  0
    0.8838    0.7541    0.0000 H   0  0  0  0  0  0  0  0  0  0  0  0
    2.6378    0.9521    0.0000 H   0  0  0  0  0  0  0  0  0  0  0  0
    4.0668    0.9521    0.0000 H   0  0  0  0  0  0  0  0  0  0  0  0
    4.7812   -1.1104    0.0000 H   0  0  0  0  0  0  0  0  0  0  0  0
    6.2102   -1.1104    0.0000 H   0  0  0  0  0  0  0  0  0  0  0  0
    7.6391   -0.2854    0.0000 H   0  0  0  0  0  0  0  0  0  0  0  0
    4.0668   -1.5229    0.0000 H   0  0  0  0  0  0  0  0  0  0  0  0
    2.6378   -2.3479    0.0000 H   0  0  0  0  0  0  0  0  0  0  0  0
    1.9878   -3.3762    0.0000 H   0  0  0  0  0  0  0  0  0  0  0  0
    1.4780   -4.9454    0.0000 H   0  0  0  0  0  0  0  0  0  0  0  0
  1  2  1  0  0  0  0
  2  3  1  0  0  0  0
  3  4  4  0  0  0  0
  4  5  4  0  0  0  0
  5  6  4  0  0  0  0
  6  7  1  0  0  0  0
  7  8  2  0  0  0  0
  7  9  2  0  0  0  0
  7 10  1  0  0  0  0
 10 11  4  0  0  0  0
 11 12  4  0  0  0  0
 12 13  4  0  0  0  0
 13 14  4  0  0  0  0
 14 15  4  0  0  0  0
 16 15  1  4  0  0  0
 16 17  2  0  0  0  0
 17 18  1  0  0  0  0
 18 19  2  0  0  0  0
 18 20  1  0  0  0  0
 20 21  1  0  0  0  0
 15 22  4  0  0  0  0
 22 23  4  0  0  0  0
 23 24  4  0  0  0  0
 13 24  4  0  0  0  0
 10 24  4  0  0  0  0
  6 25  4  0  0  0  0
 25 26  4  0  0  0  0
  3 26  4  0  0  0  0
  1 27  1  0  0  0  0
  1 28  1  0  0  0  0
  1 29  1  0  0  0  0
  4 30  1  0  0  0  0
  5 31  1  0  0  0  0
 11 32  1  0  0  0  0
 12 33  1  0  0  0  0
 14 34  1  0  0  0  0
 16 35  1  0  0  0  0
 17 36  1  0  0  0  0
 20 37  1  0  0  0  0
 21 38  1  0  0  0  0
 22 39  1  0  0  0  0
 23 40  1  0  0  0  0
 25 41  1  0  0  0  0
 26 42  1  0  0  0  0
M  END
>  <Molecule ChEMBL ID>
CHEMBL2048749

>  <Compound Key>
11

>  <Active>
1

>  <StandardizerResult>
Dearomatize (ID: Dearomatize)
Clear Stereo (ID: ClearStereo)
Wedge Clean (ID: WedgeClean)
Mesomerize (ID: Mesomerize)
Tautomerize (ID: Tautomerize)
Aromatize (ID: Aromatize)
Add Explicit Hydrogens (ID: AddExplicitH)
Neutralize (ID: Neutralize)
Clean 2D (ID: Clean2D)


$$$$

  Mrv1551102232211292D          

 61 65  0  0  0  0            999 V2000
   11.4211    1.4537    0.0000 O   0  0  0  0  0  0  0  0  0  0  0  0
   11.4211    0.6287    0.0000 C   0  0  0  0  0  0  0  0  0  0  0  0
   10.7066    0.2162    0.0000 C   0  0  0  0  0  0  0  0  0  0  0  0
    9.9921    0.6287    0.0000 C   0  0  0  0  0  0  0  0  0  0  0  0
    9.2777    0.2162    0.0000 C   0  0  0  0  0  0  0  0  0  0  0  0
    8.5632    0.6287    0.0000 C   0  0  0  0  0  0  0  0  0  0  0  0
    7.8487    0.2162    0.0000 C   0  0  0  0  0  0  0  0  0  0  0  0
    7.1343    0.6287    0.0000 N   0  0  0  0  0  0  0  0  0  0  0  0
    6.3806    0.2932    0.0000 C   0  0  0  0  0  0  0  0  0  0  0  0
    5.8285    0.9063    0.0000 C   0  0  0  0  0  0  0  0  0  0  0  0
    5.0081    0.8201    0.0000 C   0  0  0  0  0  0  0  0  0  0  0  0
    4.6725    0.0664    0.0000 C   0  0  0  0  0  0  0  0  0  0  0  0
    3.8520   -0.0199    0.0000 C   0  0  0  0  0  0  0  0  0  0  0  0
    3.3671    0.6476    0.0000 C   0  0  0  0  0  0  0  0  0  0  0  0
    3.7027    1.4013    0.0000 C   0  0  0  0  0  0  0  0  0  0  0  0
    3.2177    2.0687    0.0000 N   0  0  0  0  0  0  0  0  0  0  0  0
    2.3973    1.9825    0.0000 C   0  0  0  0  0  0  0  0  0  0  0  0
    2.0617    1.2288    0.0000 C   0  0  0  0  0  0  0  0  0  0  0  0
    2.5466    0.5613    0.0000 C   0  0  0  0  0  0  0  0  0  0  0  0
    2.2111   -0.1923    0.0000 C   0  0  0  0  0  0  0  0  0  0  0  0
    1.3906   -0.2786    0.0000 C   0  0  0  0  0  0  0  0  0  0  0  0
    0.9057    0.3889    0.0000 C   0  0  0  0  0  0  0  0  0  0  0  0
    1.2412    1.1425    0.0000 C   0  0  0  0  0  0  0  0  0  0  0  0
    0.7563    1.8100    0.0000 N   0  0  0  0  0  0  0  0  0  0  0  0
    1.0919    2.5637    0.0000 C   0  0  0  0  0  0  0  0  0  0  0  0
    0.6069    3.2311    0.0000 C   0  0  0  0  0  0  0  0  0  0  0  0
    0.9425    3.9848    0.0000 C   0  0  0  0  0  0  0  0  0  0  0  0
    1.7630    4.0710    0.0000 C   0  0  0  0  0  0  0  0  0  0  0  0
    2.2479    3.4036    0.0000 C   0  0  0  0  0  0  0  0  0  0  0  0
    1.9123    2.6499    0.0000 C   0  0  0  0  0  0  0  0  0  0  0  0
    4.5231    1.4875    0.0000 C   0  0  0  0  0  0  0  0  0  0  0  0
    6.2410    1.6208    0.0000 N   0  0  0  0  0  0  0  0  0  0  0  0
    7.0480    1.4492    0.0000 N   0  0  0  0  0  0  0  0  0  0  0  0
   12.1355    0.2162    0.0000 N   0  0  0  0  0  0  0  0  0  0  0  0
   12.8500    0.6287    0.0000 O   0  0  0  0  0  0  0  0  0  0  0  0
   10.3363   -0.5210    0.0000 H   0  0  0  0  0  0  0  0  0  0  0  0
   11.0769   -0.5210    0.0000 H   0  0  0  0  0  0  0  0  0  0  0  0
   10.3624    1.3660    0.0000 H   0  0  0  0  0  0  0  0  0  0  0  0
    9.6219    1.3660    0.0000 H   0  0  0  0  0  0  0  0  0  0  0  0
    8.9074   -0.5210    0.0000 H   0  0  0  0  0  0  0  0  0  0  0  0
    9.6479   -0.5210    0.0000 H   0  0  0  0  0  0  0  0  0  0  0  0
    8.9335    1.3660    0.0000 H   0  0  0  0  0  0  0  0  0  0  0  0
    8.1929    1.3660    0.0000 H   0  0  0  0  0  0  0  0  0  0  0  0
    7.4785   -0.5210    0.0000 H   0  0  0  0  0  0  0  0  0  0  0  0
    8.2190   -0.5210    0.0000 H   0  0  0  0  0  0  0  0  0  0  0  0
    6.2091   -0.5138    0.0000 H   0  0  0  0  0  0  0  0  0  0  0  0
    5.1574   -0.6011    0.0000 H   0  0  0  0  0  0  0  0  0  0  0  0
    3.5165   -0.7735    0.0000 H   0  0  0  0  0  0  0  0  0  0  0  0
    2.8822    1.3150    0.0000 H   0  0  0  0  0  0  0  0  0  0  0  0
    3.5533    2.8224    0.0000 H   0  0  0  0  0  0  0  0  0  0  0  0
    3.0315   -0.1061    0.0000 H   0  0  0  0  0  0  0  0  0  0  0  0
    2.2973   -1.0128    0.0000 H   0  0  0  0  0  0  0  0  0  0  0  0
    1.0550   -1.0322    0.0000 H   0  0  0  0  0  0  0  0  0  0  0  0
    0.0852    0.3026    0.0000 H   0  0  0  0  0  0  0  0  0  0  0  0
   -0.2135    3.1449    0.0000 H   0  0  0  0  0  0  0  0  0  0  0  0
    0.4576    4.6522    0.0000 H   0  0  0  0  0  0  0  0  0  0  0  0
    2.0985    4.8247    0.0000 H   0  0  0  0  0  0  0  0  0  0  0  0
    3.0684    3.4898    0.0000 H   0  0  0  0  0  0  0  0  0  0  0  0
    4.8587    2.2412    0.0000 H   0  0  0  0  0  0  0  0  0  0  0  0
   12.1355   -0.6088    0.0000 H   0  0  0  0  0  0  0  0  0  0  0  0
   13.5645    0.2162    0.0000 H   0  0  0  0  0  0  0  0  0  0  0  0
  1  2  2  0  0  0  0
  2  3  1  0  0  0  0
  3  4  1  0  0  0  0
  4  5  1  0  0  0  0
  5  6  1  0  0  0  0
  6  7  1  0  0  0  0
  7  8  1  0  0  0  0
  8  9  4  0  0  0  0
  9 10  4  0  0  0  0
 10 11  1  0  0  0  0
 11 12  4  0  0  0  0
 12 13  4  0  0  0  0
 13 14  4  0  0  0  0
 14 15  4  0  0  0  0
 15 16  1  0  0  0  0
 16 17  1  0  0  0  0
 17 18  4  0  0  0  0
 18 19  4  0  0  0  0
 19 20  4  0  0  0  0
 20 21  4  0  0  0  0
 21 22  4  0  0  0  0
 22 23  4  0  0  0  0
 18 23  4  0  0  0  0
 23 24  4  0  0  0  0
 24 25  4  0  0  0  0
 25 26  4  0  0  0  0
 26 27  4  0  0  0  0
 27 28  4  0  0  0  0
 28 29  4  0  0  0  0
 29 30  4  0  0  0  0
 17 30  4  0  0  0  0
 25 30  4  0  0  0  0
 15 31  4  0  0  0  0
 11 31  4  0  0  0  0
 10 32  4  0  0  0  0
 32 33  4  0  0  0  0
  8 33  4  0  0  0  0
  2 34  1  0  0  0  0
 34 35  1  0  0  0  0
  3 36  1  0  0  0  0
  3 37  1  0  0  0  0
  4 38  1  0  0  0  0
  4 39  1  0  0  0  0
  5 40  1  0  0  0  0
  5 41  1  0  0  0  0
  6 42  1  0  0  0  0
  6 43  1  0  0  0  0
  7 44  1  0  0  0  0
  7 45  1  0  0  0  0
  9 46  1  0  0  0  0
 12 47  1  0  0  0  0
 13 48  1  0  0  0  0
 14 49  1  0  0  0  0
 16 50  1  0  0  0  0
 19 51  1  0  0  0  0
 20 52  1  0  0  0  0
 21 53  1  0  0  0  0
 22 54  1  0  0  0  0
 26 55  1  0  0  0  0
 27 56  1  0  0  0  0
 28 57  1  0  0  0  0
 29 58  1  0  0  0  0
 31 59  1  0  0  0  0
 34 60  1  0  0  0  0
 35 61  1  0  0  0  0
M  END
>  <Molecule ChEMBL ID>
CHEMBL4251261

>  <Compound Key>
8b

>  <Active>
1

>  <StandardizerResult>
Dearomatize (ID: Dearomatize)
Clear Stereo (ID: ClearStereo)
Wedge Clean (ID: WedgeClean)
Mesomerize (ID: Mesomerize)
Tautomerize (ID: Tautomerize)
Aromatize (ID: Aromatize)
Add Explicit Hydrogens (ID: AddExplicitH)
Neutralize (ID: Neutralize)
Clean 2D (ID: Clean2D)


$$$$

  Mrv1551102232211292D          

 59 61  0  0  0  0            999 V2000
   -2.7938   -4.3369    0.0000 C   0  0  0  0  0  0  0  0  0  0  0  0
   -2.3088   -3.6694    0.0000 O   0  0  0  0  0  0  0  0  0  0  0  0
   -1.4884   -3.7557    0.0000 C   0  0  0  0  0  0  0  0  0  0  0  0
   -1.0034   -3.0882    0.0000 C   0  0  0  0  0  0  0  0  0  0  0  0
   -0.1830   -3.1745    0.0000 C   0  0  0  0  0  0  0  0  0  0  0  0
    0.3020   -2.5070    0.0000 N   0  0  0  0  0  0  0  0  0  0  0  0
    0.0470   -1.7224    0.0000 C   0  0  0  0  0  0  0  0  0  0  0  0
    0.7145   -1.2375    0.0000 C   0  0  0  0  0  0  0  0  0  0  0  0
    0.7145   -0.4125    0.0000 C   0  0  0  0  0  0  0  0  0  0  0  0
    0.0000    0.0000    0.0000 C   0  0  0  0  0  0  0  0  0  0  0  0
    0.0000    0.8250    0.0000 C   0  0  0  0  0  0  0  0  0  0  0  0
    0.7145    1.2375    0.0000 C   0  0  0  0  0  0  0  0  0  0  0  0
    1.4289    0.8250    0.0000 C   0  0  0  0  0  0  0  0  0  0  0  0
    2.1434    1.2375    0.0000 N   0  0  0  0  0  0  0  0  0  0  0  0
    2.8579    0.8250    0.0000 C   0  0  0  0  0  0  0  0  0  0  0  0
    2.8579    0.0000    0.0000 O   0  0  0  0  0  0  0  0  0  0  0  0
    3.5724    1.2375    0.0000 C   0  0  0  0  0  0  0  0  0  0  0  0
    4.2868    0.8250    0.0000 C   0  0  0  0  0  0  0  0  0  0  0  0
    5.0013    1.2375    0.0000 C   0  0  0  0  0  0  0  0  0  0  0  0
    5.7158    0.8250    0.0000 C   0  0  0  0  0  0  0  0  0  0  0  0
    6.4302    1.2375    0.0000 C   0  0  0  0  0  0  0  0  0  0  0  0
    7.1447    0.8250    0.0000 C   0  0  0  0  0  0  0  0  0  0  0  0
    7.8592    1.2375    0.0000 C   0  0  0  0  0  0  0  0  0  0  0  0
    7.8592    2.0625    0.0000 O   0  0  0  0  0  0  0  0  0  0  0  0
    8.5737    0.8250    0.0000 N   0  0  0  0  0  0  0  0  0  0  0  0
    9.2881    1.2375    0.0000 O   0  0  0  0  0  0  0  0  0  0  0  0
    1.4289    0.0000    0.0000 C   0  0  0  0  0  0  0  0  0  0  0  0
    1.3819   -1.7224    0.0000 N   0  0  0  0  0  0  0  0  0  0  0  0
    1.1270   -2.5070    0.0000 N   0  0  0  0  0  0  0  0  0  0  0  0
    0.1526   -3.9282    0.0000 C   0  0  0  0  0  0  0  0  0  0  0  0
   -0.3323   -4.5956    0.0000 C   0  0  0  0  0  0  0  0  0  0  0  0
   -1.1528   -4.5094    0.0000 C   0  0  0  0  0  0  0  0  0  0  0  0
   -1.6377   -5.1768    0.0000 F   0  0  0  0  0  0  0  0  0  0  0  0
   -3.4612   -3.8520    0.0000 H   0  0  0  0  0  0  0  0  0  0  0  0
   -3.2787   -5.0043    0.0000 H   0  0  0  0  0  0  0  0  0  0  0  0
   -2.1263   -4.8218    0.0000 H   0  0  0  0  0  0  0  0  0  0  0  0
   -1.3390   -2.3346    0.0000 H   0  0  0  0  0  0  0  0  0  0  0  0
   -0.7376   -1.4675    0.0000 H   0  0  0  0  0  0  0  0  0  0  0  0
   -0.7145   -0.4125    0.0000 H   0  0  0  0  0  0  0  0  0  0  0  0
   -0.7145    1.2375    0.0000 H   0  0  0  0  0  0  0  0  0  0  0  0
    0.7145    2.0625    0.0000 H   0  0  0  0  0  0  0  0  0  0  0  0
    2.1434    2.0625    0.0000 H   0  0  0  0  0  0  0  0  0  0  0  0
    3.9426    1.9747    0.0000 H   0  0  0  0  0  0  0  0  0  0  0  0
    3.2021    1.9747    0.0000 H   0  0  0  0  0  0  0  0  0  0  0  0
    3.9166    0.0878    0.0000 H   0  0  0  0  0  0  0  0  0  0  0  0
    4.6571    0.0878    0.0000 H   0  0  0  0  0  0  0  0  0  0  0  0
    5.3716    1.9747    0.0000 H   0  0  0  0  0  0  0  0  0  0  0  0
    4.6310    1.9747    0.0000 H   0  0  0  0  0  0  0  0  0  0  0  0
    5.3455    0.0878    0.0000 H   0  0  0  0  0  0  0  0  0  0  0  0
    6.0860    0.0878    0.0000 H   0  0  0  0  0  0  0  0  0  0  0  0
    6.8005    1.9747    0.0000 H   0  0  0  0  0  0  0  0  0  0  0  0
    6.0600    1.9747    0.0000 H   0  0  0  0  0  0  0  0  0  0  0  0
    6.7745    0.0878    0.0000 H   0  0  0  0  0  0  0  0  0  0  0  0
    7.5150    0.0878    0.0000 H   0  0  0  0  0  0  0  0  0  0  0  0
    8.5737    0.0000    0.0000 H   0  0  0  0  0  0  0  0  0  0  0  0
   10.0026    0.8250    0.0000 H   0  0  0  0  0  0  0  0  0  0  0  0
    2.1434   -0.4125    0.0000 H   0  0  0  0  0  0  0  0  0  0  0  0
    0.9731   -4.0144    0.0000 H   0  0  0  0  0  0  0  0  0  0  0  0
    0.0032   -5.3493    0.0000 H   0  0  0  0  0  0  0  0  0  0  0  0
  1  2  1  0  0  0  0
  2  3  1  0  0  0  0
  3  4  4  0  0  0  0
  4  5  4  0  0  0  0
  5  6  1  0  0  0  0
  6  7  4  0  0  0  0
  7  8  4  0  0  0  0
  8  9  1  0  0  0  0
  9 10  4  0  0  0  0
 10 11  4  0  0  0  0
 11 12  4  0  0  0  0
 12 13  4  0  0  0  0
 13 14  1  0  0  0  0
 14 15  1  0  0  0  0
 15 16  2  0  0  0  0
 15 17  1  0  0  0  0
 17 18  1  0  0  0  0
 18 19  1  0  0  0  0
 19 20  1  0  0  0  0
 20 21  1  0  0  0  0
 21 22  1  0  0  0  0
 22 23  1  0  0  0  0
 23 24  2  0  0  0  0
 23 25  1  0  0  0  0
 25 26  1  0  0  0  0
 13 27  4  0  0  0  0
  9 27  4  0  0  0  0
  8 28  4  0  0  0  0
 28 29  4  0  0  0  0
  6 29  4  0  0  0  0
  5 30  4  0  0  0  0
 30 31  4  0  0  0  0
 31 32  4  0  0  0  0
  3 32  4  0  0  0  0
 32 33  1  0  0  0  0
  1 34  1  0  0  0  0
  1 35  1  0  0  0  0
  1 36  1  0  0  0  0
  4 37  1  0  0  0  0
  7 38  1  0  0  0  0
 10 39  1  0  0  0  0
 11 40  1  0  0  0  0
 12 41  1  0  0  0  0
 14 42  1  0  0  0  0
 17 43  1  0  0  0  0
 17 44  1  0  0  0  0
 18 45  1  0  0  0  0
 18 46  1  0  0  0  0
 19 47  1  0  0  0  0
 19 48  1  0  0  0  0
 20 49  1  0  0  0  0
 20 50  1  0  0  0  0
 21 51  1  0  0  0  0
 21 52  1  0  0  0  0
 22 53  1  0  0  0  0
 22 54  1  0  0  0  0
 25 55  1  0  0  0  0
 26 56  1  0  0  0  0
 27 57  1  0  0  0  0
 30 58  1  0  0  0  0
 31 59  1  0  0  0  0
M  END
>  <Molecule ChEMBL ID>
CHEMBL1076939

>  <Compound Key>
4h

>  <Active>
1

>  <StandardizerResult>
Dearomatize (ID: Dearomatize)
Clear Stereo (ID: ClearStereo)
Wedge Clean (ID: WedgeClean)
Mesomerize (ID: Mesomerize)
Tautomerize (ID: Tautomerize)
Aromatize (ID: Aromatize)
Add Explicit Hydrogens (ID: AddExplicitH)
Neutralize (ID: Neutralize)
Clean 2D (ID: Clean2D)


$$$$

  Mrv1551102232211292D          

 56 57  0  0  0  0            999 V2000
   -4.1301    1.2240    0.0000 C   0  0  0  0  0  0  0  0  0  0  0  0
   -3.3097    1.1378    0.0000 C   0  0  0  0  0  0  0  0  0  0  0  0
   -3.3959    0.3173    0.0000 C   0  0  0  0  0  0  0  0  0  0  0  0
   -3.2234    1.9582    0.0000 C   0  0  0  0  0  0  0  0  0  0  0  0
   -2.4892    1.0515    0.0000 O   0  0  0  0  0  0  0  0  0  0  0  0
   -2.0043    1.7190    0.0000 C   0  0  0  0  0  0  0  0  0  0  0  0
   -2.3398    2.4726    0.0000 O   0  0  0  0  0  0  0  0  0  0  0  0
   -1.1838    1.6327    0.0000 N   0  0  0  0  0  0  0  0  0  0  0  0
   -0.6989    2.3002    0.0000 C   0  0  0  0  0  0  0  0  0  0  0  0
   -1.0344    3.0538    0.0000 C   0  0  0  0  0  0  0  0  0  0  0  0
   -0.5495    3.7213    0.0000 C   0  0  0  0  0  0  0  0  0  0  0  0
    0.2710    3.6350    0.0000 C   0  0  0  0  0  0  0  0  0  0  0  0
    0.6066    2.8814    0.0000 C   0  0  0  0  0  0  0  0  0  0  0  0
    1.4270    2.7951    0.0000 C   0  0  0  0  0  0  0  0  0  0  0  0
    1.9791    3.4082    0.0000 C   0  0  0  0  0  0  0  0  0  0  0  0
    2.7327    3.0727    0.0000 C   0  0  0  0  0  0  0  0  0  0  0  0
    3.4472    3.4852    0.0000 C   0  0  0  0  0  0  0  0  0  0  0  0
    3.4472    4.3102    0.0000 O   0  0  0  0  0  0  0  0  0  0  0  0
    4.1617    3.0727    0.0000 N   0  0  0  0  0  0  0  0  0  0  0  0
    4.8762    3.4852    0.0000 C   0  0  0  0  0  0  0  0  0  0  0  0
    5.5906    3.0727    0.0000 C   0  0  0  0  0  0  0  0  0  0  0  0
    6.3051    3.4852    0.0000 C   0  0  0  0  0  0  0  0  0  0  0  0
    7.0196    3.0727    0.0000 C   0  0  0  0  0  0  0  0  0  0  0  0
    7.7340    3.4852    0.0000 C   0  0  0  0  0  0  0  0  0  0  0  0
    7.7340    4.3102    0.0000 O   0  0  0  0  0  0  0  0  0  0  0  0
    8.4485    3.0727    0.0000 N   0  0  0  0  0  0  0  0  0  0  0  0
    9.1630    3.4852    0.0000 O   0  0  0  0  0  0  0  0  0  0  0  0
    2.6465    2.2522    0.0000 N   0  0  0  0  0  0  0  0  0  0  0  0
    1.8395    2.0807    0.0000 O   0  0  0  0  0  0  0  0  0  0  0  0
    0.1216    2.2139    0.0000 C   0  0  0  0  0  0  0  0  0  0  0  0
   -4.0439    2.0445    0.0000 H   0  0  0  0  0  0  0  0  0  0  0  0
   -4.9506    1.3102    0.0000 H   0  0  0  0  0  0  0  0  0  0  0  0
   -4.2164    0.4035    0.0000 H   0  0  0  0  0  0  0  0  0  0  0  0
   -3.7896   -0.4078    0.0000 H   0  0  0  0  0  0  0  0  0  0  0  0
   -2.8767   -0.3239    0.0000 H   0  0  0  0  0  0  0  0  0  0  0  0
   -2.6049    0.5516    0.0000 H   0  0  0  0  0  0  0  0  0  0  0  0
   -2.4984    1.5646    0.0000 H   0  0  0  0  0  0  0  0  0  0  0  0
   -2.5823    2.4774    0.0000 H   0  0  0  0  0  0  0  0  0  0  0  0
   -3.4577    2.7493    0.0000 H   0  0  0  0  0  0  0  0  0  0  0  0
   -0.8482    0.8790    0.0000 H   0  0  0  0  0  0  0  0  0  0  0  0
   -1.8549    3.1401    0.0000 H   0  0  0  0  0  0  0  0  0  0  0  0
   -0.8850    4.4749    0.0000 H   0  0  0  0  0  0  0  0  0  0  0  0
    0.7559    4.3025    0.0000 H   0  0  0  0  0  0  0  0  0  0  0  0
    1.8075    4.2152    0.0000 H   0  0  0  0  0  0  0  0  0  0  0  0
    4.1617    2.2477    0.0000 H   0  0  0  0  0  0  0  0  0  0  0  0
    5.2464    4.2224    0.0000 H   0  0  0  0  0  0  0  0  0  0  0  0
    4.5059    4.2224    0.0000 H   0  0  0  0  0  0  0  0  0  0  0  0
    5.2204    2.3354    0.0000 H   0  0  0  0  0  0  0  0  0  0  0  0
    5.9609    2.3354    0.0000 H   0  0  0  0  0  0  0  0  0  0  0  0
    6.6754    4.2224    0.0000 H   0  0  0  0  0  0  0  0  0  0  0  0
    5.9348    4.2224    0.0000 H   0  0  0  0  0  0  0  0  0  0  0  0
    6.6493    2.3354    0.0000 H   0  0  0  0  0  0  0  0  0  0  0  0
    7.3898    2.3354    0.0000 H   0  0  0  0  0  0  0  0  0  0  0  0
    8.4485    2.2477    0.0000 H   0  0  0  0  0  0  0  0  0  0  0  0
    9.8774    3.0727    0.0000 H   0  0  0  0  0  0  0  0  0  0  0  0
    0.4572    1.4602    0.0000 H   0  0  0  0  0  0  0  0  0  0  0  0
  1  2  1  0  0  0  0
  2  3  1  0  0  0  0
  2  4  1  0  0  0  0
  2  5  1  0  0  0  0
  5  6  1  0  0  0  0
  6  7  2  0  0  0  0
  6  8  1  0  0  0  0
  8  9  1  0  0  0  0
  9 10  4  0  0  0  0
 10 11  4  0  0  0  0
 11 12  4  0  0  0  0
 12 13  4  0  0  0  0
 13 14  1  0  0  0  0
 14 15  4  0  0  0  0
 15 16  4  0  0  0  0
 16 17  1  0  0  0  0
 17 18  2  0  0  0  0
 17 19  1  0  0  0  0
 19 20  1  0  0  0  0
 20 21  1  0  0  0  0
 21 22  1  0  0  0  0
 22 23  1  0  0  0  0
 23 24  1  0  0  0  0
 24 25  2  0  0  0  0
 24 26  1  0  0  0  0
 26 27  1  0  0  0  0
 16 28  4  0  0  0  0
 28 29  4  0  0  0  0
 14 29  4  0  0  0  0
 13 30  4  0  0  0  0
  9 30  4  0  0  0  0
  1 31  1  0  0  0  0
  1 32  1  0  0  0  0
  1 33  1  0  0  0  0
  3 34  1  0  0  0  0
  3 35  1  0  0  0  0
  3 36  1  0  0  0  0
  4 37  1  0  0  0  0
  4 38  1  0  0  0  0
  4 39  1  0  0  0  0
  8 40  1  0  0  0  0
 10 41  1  0  0  0  0
 11 42  1  0  0  0  0
 12 43  1  0  0  0  0
 15 44  1  0  0  0  0
 19 45  1  0  0  0  0
 20 46  1  0  0  0  0
 20 47  1  0  0  0  0
 21 48  1  0  0  0  0
 21 49  1  0  0  0  0
 22 50  1  0  0  0  0
 22 51  1  0  0  0  0
 23 52  1  0  0  0  0
 23 53  1  0  0  0  0
 26 54  1  0  0  0  0
 27 55  1  0  0  0  0
 30 56  1  0  0  0  0
M  END
>  <Molecule ChEMBL ID>
CHEMBL469275

>  <Compound Key>
4

>  <Active>
1

>  <StandardizerResult>
Dearomatize (ID: Dearomatize)
Clear Stereo (ID: ClearStereo)
Wedge Clean (ID: WedgeClean)
Mesomerize (ID: Mesomerize)
Tautomerize (ID: Tautomerize)
Aromatize (ID: Aromatize)
Add Explicit Hydrogens (ID: AddExplicitH)
Neutralize (ID: Neutralize)
Clean 2D (ID: Clean2D)


$$$$

  Mrv1551102232211292D          

 54 57  0  0  0  0            999 V2000
    7.6590   -2.1579    0.0000 O   0  0  0  0  0  0  0  0  0  0  0  0
    7.6590   -2.9829    0.0000 C   0  0  0  0  0  0  0  0  0  0  0  0
    6.9445   -3.3954    0.0000 C   0  0  0  0  0  0  0  0  0  0  0  0
    6.2301   -2.9829    0.0000 C   0  0  0  0  0  0  0  0  0  0  0  0
    5.5156   -3.3954    0.0000 C   0  0  0  0  0  0  0  0  0  0  0  0
    4.8011   -2.9829    0.0000 C   0  0  0  0  0  0  0  0  0  0  0  0
    4.0866   -3.3954    0.0000 C   0  0  0  0  0  0  0  0  0  0  0  0
    3.3722   -2.9829    0.0000 N   0  0  0  0  0  0  0  0  0  0  0  0
    2.6185   -3.3184    0.0000 C   0  0  0  0  0  0  0  0  0  0  0  0
    2.0665   -2.7053    0.0000 C   0  0  0  0  0  0  0  0  0  0  0  0
    1.2460   -2.7916    0.0000 C   0  0  0  0  0  0  0  0  0  0  0  0
    0.9104   -3.5452    0.0000 C   0  0  0  0  0  0  0  0  0  0  0  0
    0.0899   -3.6315    0.0000 C   0  0  0  0  0  0  0  0  0  0  0  0
   -0.3950   -2.9640    0.0000 C   0  0  0  0  0  0  0  0  0  0  0  0
   -1.2155   -3.0503    0.0000 N   0  0  0  0  0  0  0  0  0  0  0  0
   -1.7004   -2.3828    0.0000 C   0  0  0  0  0  0  0  0  0  0  0  0
   -1.3648   -1.6292    0.0000 N   0  0  0  0  0  0  0  0  0  0  0  0
   -0.5443   -1.5429    0.0000 C   0  0  0  0  0  0  0  0  0  0  0  0
   -0.2088   -0.7892    0.0000 N   0  0  0  0  0  0  0  0  0  0  0  0
   -0.6937   -0.1218    0.0000 C   0  0  0  0  0  0  0  0  0  0  0  0
   -1.5142   -0.2080    0.0000 C   0  0  0  0  0  0  0  0  0  0  0  0
   -1.9991    0.4594    0.0000 C   0  0  0  0  0  0  0  0  0  0  0  0
   -1.6635    1.2131    0.0000 C   0  0  0  0  0  0  0  0  0  0  0  0
   -0.8431    1.2993    0.0000 C   0  0  0  0  0  0  0  0  0  0  0  0
   -0.5075    2.0530    0.0000 Cl  0  0  0  0  0  0  0  0  0  0  0  0
   -0.3581    0.6319    0.0000 C   0  0  0  0  0  0  0  0  0  0  0  0
    0.4623    0.7181    0.0000 F   0  0  0  0  0  0  0  0  0  0  0  0
   -0.0594   -2.2104    0.0000 C   0  0  0  0  0  0  0  0  0  0  0  0
    0.7611   -2.1241    0.0000 C   0  0  0  0  0  0  0  0  0  0  0  0
    2.4790   -1.9909    0.0000 N   0  0  0  0  0  0  0  0  0  0  0  0
    3.2859   -2.1624    0.0000 N   0  0  0  0  0  0  0  0  0  0  0  0
    8.3735   -3.3954    0.0000 N   0  0  0  0  0  0  0  0  0  0  0  0
    9.0879   -2.9829    0.0000 O   0  0  0  0  0  0  0  0  0  0  0  0
    6.5743   -4.1326    0.0000 H   0  0  0  0  0  0  0  0  0  0  0  0
    7.3148   -4.1326    0.0000 H   0  0  0  0  0  0  0  0  0  0  0  0
    6.6003   -2.2456    0.0000 H   0  0  0  0  0  0  0  0  0  0  0  0
    5.8598   -2.2456    0.0000 H   0  0  0  0  0  0  0  0  0  0  0  0
    5.1453   -4.1326    0.0000 H   0  0  0  0  0  0  0  0  0  0  0  0
    5.8858   -4.1326    0.0000 H   0  0  0  0  0  0  0  0  0  0  0  0
    5.1714   -2.2456    0.0000 H   0  0  0  0  0  0  0  0  0  0  0  0
    4.4309   -2.2456    0.0000 H   0  0  0  0  0  0  0  0  0  0  0  0
    3.7164   -4.1326    0.0000 H   0  0  0  0  0  0  0  0  0  0  0  0
    4.4569   -4.1326    0.0000 H   0  0  0  0  0  0  0  0  0  0  0  0
    2.4470   -4.1254    0.0000 H   0  0  0  0  0  0  0  0  0  0  0  0
    1.3954   -4.2127    0.0000 H   0  0  0  0  0  0  0  0  0  0  0  0
   -0.2456   -4.3851    0.0000 H   0  0  0  0  0  0  0  0  0  0  0  0
   -2.5209   -2.4691    0.0000 H   0  0  0  0  0  0  0  0  0  0  0  0
    0.6117   -0.7030    0.0000 H   0  0  0  0  0  0  0  0  0  0  0  0
   -1.8497   -0.9617    0.0000 H   0  0  0  0  0  0  0  0  0  0  0  0
   -2.8196    0.3732    0.0000 H   0  0  0  0  0  0  0  0  0  0  0  0
   -2.1485    1.8805    0.0000 H   0  0  0  0  0  0  0  0  0  0  0  0
    1.0966   -1.3704    0.0000 H   0  0  0  0  0  0  0  0  0  0  0  0
    8.3735   -4.2204    0.0000 H   0  0  0  0  0  0  0  0  0  0  0  0
    9.8024   -3.3954    0.0000 H   0  0  0  0  0  0  0  0  0  0  0  0
  1  2  2  0  0  0  0
  2  3  1  0  0  0  0
  3  4  1  0  0  0  0
  4  5  1  0  0  0  0
  5  6  1  0  0  0  0
  6  7  1  0  0  0  0
  7  8  1  0  0  0  0
  8  9  4  0  0  0  0
  9 10  4  0  0  0  0
 10 11  1  0  0  0  0
 11 12  4  0  0  0  0
 12 13  4  0  0  0  0
 13 14  4  0  0  0  0
 14 15  4  0  0  0  0
 15 16  4  0  0  0  0
 16 17  4  0  0  0  0
 17 18  4  0  0  0  0
 18 19  1  0  0  0  0
 19 20  1  0  0  0  0
 20 21  4  0  0  0  0
 21 22  4  0  0  0  0
 22 23  4  0  0  0  0
 23 24  4  0  0  0  0
 24 25  1  0  0  0  0
 24 26  4  0  0  0  0
 20 26  4  0  0  0  0
 26 27  1  0  0  0  0
 18 28  4  0  0  0  0
 14 28  4  0  0  0  0
 28 29  4  0  0  0  0
 11 29  4  0  0  0  0
 10 30  4  0  0  0  0
 30 31  4  0  0  0  0
  8 31  4  0  0  0  0
  2 32  1  0  0  0  0
 32 33  1  0  0  0  0
  3 34  1  0  0  0  0
  3 35  1  0  0  0  0
  4 36  1  0  0  0  0
  4 37  1  0  0  0  0
  5 38  1  0  0  0  0
  5 39  1  0  0  0  0
  6 40  1  0  0  0  0
  6 41  1  0  0  0  0
  7 42  1  0  0  0  0
  7 43  1  0  0  0  0
  9 44  1  0  0  0  0
 12 45  1  0  0  0  0
 13 46  1  0  0  0  0
 16 47  1  0  0  0  0
 19 48  1  0  0  0  0
 21 49  1  0  0  0  0
 22 50  1  0  0  0  0
 23 51  1  0  0  0  0
 29 52  1  0  0  0  0
 32 53  1  0  0  0  0
 33 54  1  0  0  0  0
M  END
>  <Molecule ChEMBL ID>
CHEMBL3929484

>  <Compound Key>
9c

>  <Active>
1

>  <StandardizerResult>
Dearomatize (ID: Dearomatize)
Clear Stereo (ID: ClearStereo)
Wedge Clean (ID: WedgeClean)
Mesomerize (ID: Mesomerize)
Tautomerize (ID: Tautomerize)
Aromatize (ID: Aromatize)
Add Explicit Hydrogens (ID: AddExplicitH)
Neutralize (ID: Neutralize)
Clean 2D (ID: Clean2D)


$$$$

  Mrv1551102232211292D          

 61 63  0  0  0  0            999 V2000
    4.5381   -4.8023    0.0000 O   0  0  0  0  0  0  0  0  0  0  0  0
    4.5381   -5.6273    0.0000 C   0  0  0  0  0  0  0  0  0  0  0  0
    3.8236   -6.0398    0.0000 C   0  0  0  0  0  0  0  0  0  0  0  0
    3.1092   -5.6273    0.0000 C   0  0  0  0  0  0  0  0  0  0  0  0
    2.3947   -6.0398    0.0000 C   0  0  0  0  0  0  0  0  0  0  0  0
    1.6802   -5.6273    0.0000 C   0  0  0  0  0  0  0  0  0  0  0  0
    0.9657   -6.0398    0.0000 C   0  0  0  0  0  0  0  0  0  0  0  0
    0.2513   -5.6273    0.0000 C   0  0  0  0  0  0  0  0  0  0  0  0
   -0.4632   -6.0398    0.0000 C   0  0  0  0  0  0  0  0  0  0  0  0
   -0.4632   -6.8648    0.0000 O   0  0  0  0  0  0  0  0  0  0  0  0
   -1.1777   -5.6273    0.0000 N   0  0  0  0  0  0  0  0  0  0  0  0
   -1.8921   -6.0398    0.0000 C   0  0  0  0  0  0  0  0  0  0  0  0
   -1.8921   -6.8648    0.0000 C   0  0  0  0  0  0  0  0  0  0  0  0
   -2.6066   -7.2773    0.0000 C   0  0  0  0  0  0  0  0  0  0  0  0
   -3.3211   -6.8648    0.0000 C   0  0  0  0  0  0  0  0  0  0  0  0
   -3.3211   -6.0398    0.0000 C   0  0  0  0  0  0  0  0  0  0  0  0
   -4.0355   -5.6273    0.0000 N   0  0  0  0  0  0  0  0  0  0  0  0
   -4.7892   -5.9628    0.0000 C   0  0  0  0  0  0  0  0  0  0  0  0
   -5.3413   -5.3498    0.0000 C   0  0  0  0  0  0  0  0  0  0  0  0
   -6.1617   -5.4360    0.0000 C   0  0  0  0  0  0  0  0  0  0  0  0
   -6.4973   -6.1897    0.0000 C   0  0  0  0  0  0  0  0  0  0  0  0
   -7.3178   -6.2759    0.0000 C   0  0  0  0  0  0  0  0  0  0  0  0
   -7.8027   -5.6085    0.0000 C   0  0  0  0  0  0  0  0  0  0  0  0
   -7.4671   -4.8548    0.0000 C   0  0  0  0  0  0  0  0  0  0  0  0
   -6.6467   -4.7686    0.0000 C   0  0  0  0  0  0  0  0  0  0  0  0
   -4.9288   -4.6353    0.0000 N   0  0  0  0  0  0  0  0  0  0  0  0
   -4.1218   -4.8068    0.0000 N   0  0  0  0  0  0  0  0  0  0  0  0
   -2.6066   -5.6273    0.0000 C   0  0  0  0  0  0  0  0  0  0  0  0
    5.2526   -6.0398    0.0000 N   0  0  0  0  0  0  0  0  0  0  0  0
    5.9670   -5.6273    0.0000 O   0  0  0  0  0  0  0  0  0  0  0  0
    3.4534   -6.7770    0.0000 H   0  0  0  0  0  0  0  0  0  0  0  0
    4.1939   -6.7770    0.0000 H   0  0  0  0  0  0  0  0  0  0  0  0
    3.4794   -4.8900    0.0000 H   0  0  0  0  0  0  0  0  0  0  0  0
    2.7389   -4.8900    0.0000 H   0  0  0  0  0  0  0  0  0  0  0  0
    2.0244   -6.7770    0.0000 H   0  0  0  0  0  0  0  0  0  0  0  0
    2.7649   -6.7770    0.0000 H   0  0  0  0  0  0  0  0  0  0  0  0
    2.0505   -4.8900    0.0000 H   0  0  0  0  0  0  0  0  0  0  0  0
    1.3100   -4.8900    0.0000 H   0  0  0  0  0  0  0  0  0  0  0  0
    0.5955   -6.7770    0.0000 H   0  0  0  0  0  0  0  0  0  0  0  0
    1.3360   -6.7770    0.0000 H   0  0  0  0  0  0  0  0  0  0  0  0
    0.6215   -4.8900    0.0000 H   0  0  0  0  0  0  0  0  0  0  0  0
   -0.1190   -4.8900    0.0000 H   0  0  0  0  0  0  0  0  0  0  0  0
   -1.1777   -4.8023    0.0000 H   0  0  0  0  0  0  0  0  0  0  0  0
   -1.1777   -7.2773    0.0000 H   0  0  0  0  0  0  0  0  0  0  0  0
   -2.6066   -8.1023    0.0000 H   0  0  0  0  0  0  0  0  0  0  0  0
   -4.0355   -7.2773    0.0000 H   0  0  0  0  0  0  0  0  0  0  0  0
   -4.9608   -6.7698    0.0000 H   0  0  0  0  0  0  0  0  0  0  0  0
   -5.8262   -4.6823    0.0000 H   0  0  0  0  0  0  0  0  0  0  0  0
   -6.3635   -7.0037    0.0000 H   0  0  0  0  0  0  0  0  0  0  0  0
   -5.7644   -6.5685    0.0000 H   0  0  0  0  0  0  0  0  0  0  0  0
   -7.9559   -6.7988    0.0000 H   0  0  0  0  0  0  0  0  0  0  0  0
   -7.2794   -7.1000    0.0000 H   0  0  0  0  0  0  0  0  0  0  0  0
   -8.5746   -5.3173    0.0000 H   0  0  0  0  0  0  0  0  0  0  0  0
   -8.4972   -6.0538    0.0000 H   0  0  0  0  0  0  0  0  0  0  0  0
   -7.6009   -4.0407    0.0000 H   0  0  0  0  0  0  0  0  0  0  0  0
   -8.2000   -4.4760    0.0000 H   0  0  0  0  0  0  0  0  0  0  0  0
   -6.4471   -3.9681    0.0000 H   0  0  0  0  0  0  0  0  0  0  0  0
   -7.0083   -4.0270    0.0000 H   0  0  0  0  0  0  0  0  0  0  0  0
   -2.6066   -4.8023    0.0000 H   0  0  0  0  0  0  0  0  0  0  0  0
    5.2526   -6.8648    0.0000 H   0  0  0  0  0  0  0  0  0  0  0  0
    6.6815   -6.0398    0.0000 H   0  0  0  0  0  0  0  0  0  0  0  0
  1  2  2  0  0  0  0
  2  3  1  0  0  0  0
  3  4  1  0  0  0  0
  4  5  1  0  0  0  0
  5  6  1  0  0  0  0
  6  7  1  0  0  0  0
  7  8  1  0  0  0  0
  8  9  1  0  0  0  0
  9 10  2  0  0  0  0
  9 11  1  0  0  0  0
 11 12  1  0  0  0  0
 12 13  4  0  0  0  0
 13 14  4  0  0  0  0
 14 15  4  0  0  0  0
 15 16  4  0  0  0  0
 16 17  1  0  0  0  0
 17 18  4  0  0  0  0
 18 19  4  0  0  0  0
 19 20  1  0  0  0  0
 20 21  1  0  0  0  0
 21 22  1  0  0  0  0
 22 23  1  0  0  0  0
 23 24  1  0  0  0  0
 24 25  1  0  0  0  0
 20 25  1  0  0  0  0
 19 26  4  0  0  0  0
 26 27  4  0  0  0  0
 17 27  4  0  0  0  0
 16 28  4  0  0  0  0
 12 28  4  0  0  0  0
  2 29  1  0  0  0  0
 29 30  1  0  0  0  0
  3 31  1  0  0  0  0
  3 32  1  0  0  0  0
  4 33  1  0  0  0  0
  4 34  1  0  0  0  0
  5 35  1  0  0  0  0
  5 36  1  0  0  0  0
  6 37  1  0  0  0  0
  6 38  1  0  0  0  0
  7 39  1  0  0  0  0
  7 40  1  0  0  0  0
  8 41  1  0  0  0  0
  8 42  1  0  0  0  0
 11 43  1  0  0  0  0
 13 44  1  0  0  0  0
 14 45  1  0  0  0  0
 15 46  1  0  0  0  0
 18 47  1  0  0  0  0
 20 48  1  0  0  0  0
 21 49  1  0  0  0  0
 21 50  1  0  0  0  0
 22 51  1  0  0  0  0
 22 52  1  0  0  0  0
 23 53  1  0  0  0  0
 23 54  1  0  0  0  0
 24 55  1  0  0  0  0
 24 56  1  0  0  0  0
 25 57  1  0  0  0  0
 25 58  1  0  0  0  0
 28 59  1  0  0  0  0
 29 60  1  0  0  0  0
 30 61  1  0  0  0  0
M  END
>  <Molecule ChEMBL ID>
CHEMBL1094710

>  <Compound Key>
11b

>  <Active>
1

>  <StandardizerResult>
Dearomatize (ID: Dearomatize)
Clear Stereo (ID: ClearStereo)
Wedge Clean (ID: WedgeClean)
Mesomerize (ID: Mesomerize)
Tautomerize (ID: Tautomerize)
Aromatize (ID: Aromatize)
Add Explicit Hydrogens (ID: AddExplicitH)
Neutralize (ID: Neutralize)
Clean 2D (ID: Clean2D)


$$$$

  Mrv1551102232211292D          

 44 46  0  0  0  0            999 V2000
   -4.2868   -5.7750    0.0000 O   0  0  0  0  0  0  0  0  0  0  0  0
   -4.2868   -4.9500    0.0000 C   0  0  0  0  0  0  0  0  0  0  0  0
   -3.5724   -4.5375    0.0000 C   0  0  0  0  0  0  0  0  0  0  0  0
   -3.5724   -3.7125    0.0000 C   0  0  0  0  0  0  0  0  0  0  0  0
   -2.8579   -3.3000    0.0000 C   0  0  0  0  0  0  0  0  0  0  0  0
   -2.8579   -2.4750    0.0000 C   0  0  0  0  0  0  0  0  0  0  0  0
   -2.1434   -2.0625    0.0000 C   0  0  0  0  0  0  0  0  0  0  0  0
   -1.4289   -2.4750    0.0000 C   0  0  0  0  0  0  0  0  0  0  0  0
   -0.7145   -2.0625    0.0000 C   0  0  0  0  0  0  0  0  0  0  0  0
    0.0000   -2.4750    0.0000 C   0  0  0  0  0  0  0  0  0  0  0  0
    0.7145   -2.0625    0.0000 N   0  0  0  0  0  0  0  0  0  0  0  0
    1.4289   -2.4750    0.0000 C   0  0  0  0  0  0  0  0  0  0  0  0
    1.4289   -3.3000    0.0000 O   0  0  0  0  0  0  0  0  0  0  0  0
    2.1434   -2.0625    0.0000 C   0  0  0  0  0  0  0  0  0  0  0  0
    2.1434   -1.2375    0.0000 C   0  0  0  0  0  0  0  0  0  0  0  0
    2.8579   -0.8250    0.0000 C   0  0  0  0  0  0  0  0  0  0  0  0
    3.5724   -1.2375    0.0000 C   0  0  0  0  0  0  0  0  0  0  0  0
    4.3570   -0.9826    0.0000 N   0  0  0  0  0  0  0  0  0  0  0  0
    4.8419   -1.6500    0.0000 C   0  0  0  0  0  0  0  0  0  0  0  0
    4.3570   -2.3174    0.0000 N   0  0  0  0  0  0  0  0  0  0  0  0
    3.5724   -2.0625    0.0000 C   0  0  0  0  0  0  0  0  0  0  0  0
    2.8579   -2.4750    0.0000 C   0  0  0  0  0  0  0  0  0  0  0  0
   -1.4289   -3.3000    0.0000 C   0  0  0  0  0  0  0  0  0  0  0  0
   -2.1434   -3.7125    0.0000 C   0  0  0  0  0  0  0  0  0  0  0  0
   -5.0013   -4.5375    0.0000 N   0  0  0  0  0  0  0  0  0  0  0  0
   -5.7158   -4.9500    0.0000 O   0  0  0  0  0  0  0  0  0  0  0  0
   -2.8579   -4.9500    0.0000 H   0  0  0  0  0  0  0  0  0  0  0  0
   -4.2868   -3.3000    0.0000 H   0  0  0  0  0  0  0  0  0  0  0  0
   -3.5724   -2.0625    0.0000 H   0  0  0  0  0  0  0  0  0  0  0  0
   -2.1434   -1.2375    0.0000 H   0  0  0  0  0  0  0  0  0  0  0  0
   -0.3442   -1.3253    0.0000 H   0  0  0  0  0  0  0  0  0  0  0  0
   -1.0847   -1.3253    0.0000 H   0  0  0  0  0  0  0  0  0  0  0  0
   -0.3703   -3.2122    0.0000 H   0  0  0  0  0  0  0  0  0  0  0  0
    0.3703   -3.2122    0.0000 H   0  0  0  0  0  0  0  0  0  0  0  0
    0.7145   -1.2375    0.0000 H   0  0  0  0  0  0  0  0  0  0  0  0
    1.4289   -0.8250    0.0000 H   0  0  0  0  0  0  0  0  0  0  0  0
    2.8579    0.0000    0.0000 H   0  0  0  0  0  0  0  0  0  0  0  0
    5.6669   -1.6500    0.0000 H   0  0  0  0  0  0  0  0  0  0  0  0
    4.6119   -3.1021    0.0000 H   0  0  0  0  0  0  0  0  0  0  0  0
    2.8579   -3.3000    0.0000 H   0  0  0  0  0  0  0  0  0  0  0  0
   -0.7145   -3.7125    0.0000 H   0  0  0  0  0  0  0  0  0  0  0  0
   -2.1434   -4.5375    0.0000 H   0  0  0  0  0  0  0  0  0  0  0  0
   -5.0013   -3.7125    0.0000 H   0  0  0  0  0  0  0  0  0  0  0  0
   -6.4302   -4.5375    0.0000 H   0  0  0  0  0  0  0  0  0  0  0  0
  1  2  2  0  0  0  0
  3  2  1  4  0  0  0
  3  4  2  0  0  0  0
  4  5  1  0  0  0  0
  5  6  4  0  0  0  0
  6  7  4  0  0  0  0
  7  8  4  0  0  0  0
  8  9  1  0  0  0  0
  9 10  1  0  0  0  0
 10 11  1  0  0  0  0
 11 12  1  0  0  0  0
 12 13  2  0  0  0  0
 12 14  1  0  0  0  0
 14 15  4  0  0  0  0
 15 16  4  0  0  0  0
 16 17  4  0  0  0  0
 17 18  4  0  0  0  0
 18 19  4  0  0  0  0
 19 20  4  0  0  0  0
 20 21  4  0  0  0  0
 17 21  4  0  0  0  0
 21 22  4  0  0  0  0
 14 22  4  0  0  0  0
  8 23  4  0  0  0  0
 23 24  4  0  0  0  0
  5 24  4  0  0  0  0
  2 25  1  0  0  0  0
 25 26  1  0  0  0  0
  3 27  1  0  0  0  0
  4 28  1  0  0  0  0
  6 29  1  0  0  0  0
  7 30  1  0  0  0  0
  9 31  1  0  0  0  0
  9 32  1  0  0  0  0
 10 33  1  0  0  0  0
 10 34  1  0  0  0  0
 11 35  1  0  0  0  0
 15 36  1  0  0  0  0
 16 37  1  0  0  0  0
 19 38  1  0  0  0  0
 20 39  1  0  0  0  0
 22 40  1  0  0  0  0
 23 41  1  0  0  0  0
 24 42  1  0  0  0  0
 25 43  1  0  0  0  0
 26 44  1  0  0  0  0
M  END
>  <Molecule ChEMBL ID>
CHEMBL4076931

>  <Compound Key>
15g

>  <Active>
1

>  <StandardizerResult>
Dearomatize (ID: Dearomatize)
Clear Stereo (ID: ClearStereo)
Wedge Clean (ID: WedgeClean)
Mesomerize (ID: Mesomerize)
Tautomerize (ID: Tautomerize)
Aromatize (ID: Aromatize)
Add Explicit Hydrogens (ID: AddExplicitH)
Neutralize (ID: Neutralize)
Clean 2D (ID: Clean2D)


$$$$

  Mrv1551102232211292D          

 59 61  0  0  0  0            999 V2000
    2.1295   -1.2529    0.0000 O   0  0  0  0  0  0  0  0  0  0  0  0
    2.1295   -2.0779    0.0000 C   0  0  0  0  0  0  0  0  0  0  0  0
    1.4150   -2.4904    0.0000 C   0  0  0  0  0  0  0  0  0  0  0  0
    0.7006   -2.0779    0.0000 C   0  0  0  0  0  0  0  0  0  0  0  0
   -0.0139   -2.4904    0.0000 C   0  0  0  0  0  0  0  0  0  0  0  0
   -0.7284   -2.0779    0.0000 C   0  0  0  0  0  0  0  0  0  0  0  0
   -1.4429   -2.4904    0.0000 C   0  0  0  0  0  0  0  0  0  0  0  0
   -2.1573   -2.0779    0.0000 C   0  0  0  0  0  0  0  0  0  0  0  0
   -2.8718   -2.4904    0.0000 N   0  0  0  0  0  0  0  0  0  0  0  0
   -3.5863   -2.0779    0.0000 C   0  0  0  0  0  0  0  0  0  0  0  0
   -3.5863   -1.2529    0.0000 O   0  0  0  0  0  0  0  0  0  0  0  0
   -4.3007   -2.4904    0.0000 C   0  0  0  0  0  0  0  0  0  0  0  0
   -4.3007   -3.3154    0.0000 C   0  0  0  0  0  0  0  0  0  0  0  0
   -5.0152   -3.7279    0.0000 N   0  0  0  0  0  0  0  0  0  0  0  0
   -5.7297   -3.3154    0.0000 C   0  0  0  0  0  0  0  0  0  0  0  0
   -6.4441   -3.7279    0.0000 N   0  0  0  0  0  0  0  0  0  0  0  0
   -7.1586   -3.3154    0.0000 C   0  0  0  0  0  0  0  0  0  0  0  0
   -7.8731   -3.7279    0.0000 C   0  0  0  0  0  0  0  0  0  0  0  0
   -8.5876   -3.3154    0.0000 C   0  0  0  0  0  0  0  0  0  0  0  0
   -8.5876   -2.4904    0.0000 C   0  0  0  0  0  0  0  0  0  0  0  0
   -7.8731   -2.0779    0.0000 C   0  0  0  0  0  0  0  0  0  0  0  0
   -7.1586   -2.4904    0.0000 C   0  0  0  0  0  0  0  0  0  0  0  0
   -6.4441   -4.5529    0.0000 C   0  0  0  0  0  0  0  0  0  0  0  0
   -5.7297   -4.9654    0.0000 C   0  0  0  0  0  0  0  0  0  0  0  0
   -5.7297   -5.7904    0.0000 C   0  0  0  0  0  0  0  0  0  0  0  0
   -6.4441   -6.2029    0.0000 C   0  0  0  0  0  0  0  0  0  0  0  0
   -7.1586   -5.7904    0.0000 C   0  0  0  0  0  0  0  0  0  0  0  0
   -7.1586   -4.9654    0.0000 C   0  0  0  0  0  0  0  0  0  0  0  0
   -5.7297   -2.4904    0.0000 N   0  0  0  0  0  0  0  0  0  0  0  0
   -5.0152   -2.0779    0.0000 C   0  0  0  0  0  0  0  0  0  0  0  0
    2.8440   -2.4904    0.0000 N   0  0  0  0  0  0  0  0  0  0  0  0
    3.5584   -2.0779    0.0000 O   0  0  0  0  0  0  0  0  0  0  0  0
    1.0448   -3.2277    0.0000 H   0  0  0  0  0  0  0  0  0  0  0  0
    1.7853   -3.2277    0.0000 H   0  0  0  0  0  0  0  0  0  0  0  0
    1.0708   -1.3407    0.0000 H   0  0  0  0  0  0  0  0  0  0  0  0
    0.3303   -1.3407    0.0000 H   0  0  0  0  0  0  0  0  0  0  0  0
   -0.3842   -3.2277    0.0000 H   0  0  0  0  0  0  0  0  0  0  0  0
    0.3564   -3.2277    0.0000 H   0  0  0  0  0  0  0  0  0  0  0  0
   -0.3581   -1.3407    0.0000 H   0  0  0  0  0  0  0  0  0  0  0  0
   -1.0986   -1.3407    0.0000 H   0  0  0  0  0  0  0  0  0  0  0  0
   -1.8131   -3.2277    0.0000 H   0  0  0  0  0  0  0  0  0  0  0  0
   -1.0726   -3.2277    0.0000 H   0  0  0  0  0  0  0  0  0  0  0  0
   -1.7871   -1.3407    0.0000 H   0  0  0  0  0  0  0  0  0  0  0  0
   -2.5276   -1.3407    0.0000 H   0  0  0  0  0  0  0  0  0  0  0  0
   -2.8718   -3.3154    0.0000 H   0  0  0  0  0  0  0  0  0  0  0  0
   -3.5863   -3.7279    0.0000 H   0  0  0  0  0  0  0  0  0  0  0  0
   -7.8731   -4.5529    0.0000 H   0  0  0  0  0  0  0  0  0  0  0  0
   -9.3020   -3.7279    0.0000 H   0  0  0  0  0  0  0  0  0  0  0  0
   -9.3020   -2.0779    0.0000 H   0  0  0  0  0  0  0  0  0  0  0  0
   -7.8731   -1.2529    0.0000 H   0  0  0  0  0  0  0  0  0  0  0  0
   -6.4441   -2.0779    0.0000 H   0  0  0  0  0  0  0  0  0  0  0  0
   -5.0152   -4.5529    0.0000 H   0  0  0  0  0  0  0  0  0  0  0  0
   -5.0152   -6.2029    0.0000 H   0  0  0  0  0  0  0  0  0  0  0  0
   -6.4441   -7.0279    0.0000 H   0  0  0  0  0  0  0  0  0  0  0  0
   -7.8731   -6.2029    0.0000 H   0  0  0  0  0  0  0  0  0  0  0  0
   -7.1586   -4.1404    0.0000 H   0  0  0  0  0  0  0  0  0  0  0  0
   -5.0152   -1.2529    0.0000 H   0  0  0  0  0  0  0  0  0  0  0  0
    2.8440   -3.3154    0.0000 H   0  0  0  0  0  0  0  0  0  0  0  0
    4.2729   -2.4904    0.0000 H   0  0  0  0  0  0  0  0  0  0  0  0
  1  2  2  0  0  0  0
  2  3  1  0  0  0  0
  3  4  1  0  0  0  0
  4  5  1  0  0  0  0
  5  6  1  0  0  0  0
  6  7  1  0  0  0  0
  7  8  1  0  0  0  0
  8  9  1  0  0  0  0
  9 10  1  0  0  0  0
 10 11  2  0  0  0  0
 10 12  1  0  0  0  0
 12 13  4  0  0  0  0
 13 14  4  0  0  0  0
 14 15  4  0  0  0  0
 15 16  1  0  0  0  0
 16 17  1  0  0  0  0
 17 18  4  0  0  0  0
 18 19  4  0  0  0  0
 19 20  4  0  0  0  0
 20 21  4  0  0  0  0
 21 22  4  0  0  0  0
 17 22  4  0  0  0  0
 16 23  1  0  0  0  0
 23 24  4  0  0  0  0
 24 25  4  0  0  0  0
 25 26  4  0  0  0  0
 26 27  4  0  0  0  0
 27 28  4  0  0  0  0
 23 28  4  0  0  0  0
 15 29  4  0  0  0  0
 29 30  4  0  0  0  0
 12 30  4  0  0  0  0
  2 31  1  0  0  0  0
 31 32  1  0  0  0  0
  3 33  1  0  0  0  0
  3 34  1  0  0  0  0
  4 35  1  0  0  0  0
  4 36  1  0  0  0  0
  5 37  1  0  0  0  0
  5 38  1  0  0  0  0
  6 39  1  0  0  0  0
  6 40  1  0  0  0  0
  7 41  1  0  0  0  0
  7 42  1  0  0  0  0
  8 43  1  0  0  0  0
  8 44  1  0  0  0  0
  9 45  1  0  0  0  0
 13 46  1  0  0  0  0
 18 47  1  0  0  0  0
 19 48  1  0  0  0  0
 20 49  1  0  0  0  0
 21 50  1  0  0  0  0
 22 51  1  0  0  0  0
 24 52  1  0  0  0  0
 25 53  1  0  0  0  0
 26 54  1  0  0  0  0
 27 55  1  0  0  0  0
 28 56  1  0  0  0  0
 30 57  1  0  0  0  0
 31 58  1  0  0  0  0
 32 59  1  0  0  0  0
M  END
>  <Molecule ChEMBL ID>
CHEMBL2364628

>  <Compound Key>
5, ACY-1215

>  <Active>
1

>  <StandardizerResult>
Dearomatize (ID: Dearomatize)
Clear Stereo (ID: ClearStereo)
Wedge Clean (ID: WedgeClean)
Mesomerize (ID: Mesomerize)
Tautomerize (ID: Tautomerize)
Aromatize (ID: Aromatize)
Add Explicit Hydrogens (ID: AddExplicitH)
Neutralize (ID: Neutralize)
Clean 2D (ID: Clean2D)


$$$$

  Mrv1551102232211292D          

 64 68  0  0  0  0            999 V2000
   11.7520    0.6893    0.0000 O   0  0  0  0  0  0  0  0  0  0  0  0
   11.7520   -0.1357    0.0000 C   0  0  0  0  0  0  0  0  0  0  0  0
   11.0375   -0.5482    0.0000 C   0  0  0  0  0  0  0  0  0  0  0  0
   10.3231   -0.1357    0.0000 C   0  0  0  0  0  0  0  0  0  0  0  0
    9.6086   -0.5482    0.0000 C   0  0  0  0  0  0  0  0  0  0  0  0
    8.8941   -0.1357    0.0000 C   0  0  0  0  0  0  0  0  0  0  0  0
    8.1796   -0.5482    0.0000 C   0  0  0  0  0  0  0  0  0  0  0  0
    7.4652   -0.1357    0.0000 C   0  0  0  0  0  0  0  0  0  0  0  0
    6.7507   -0.5482    0.0000 N   0  0  0  0  0  0  0  0  0  0  0  0
    6.6645   -1.3687    0.0000 C   0  0  0  0  0  0  0  0  0  0  0  0
    5.8575   -1.5402    0.0000 C   0  0  0  0  0  0  0  0  0  0  0  0
    5.5219   -2.2939    0.0000 C   0  0  0  0  0  0  0  0  0  0  0  0
    6.0069   -2.9613    0.0000 C   0  0  0  0  0  0  0  0  0  0  0  0
    5.6713   -3.7150    0.0000 C   0  0  0  0  0  0  0  0  0  0  0  0
    4.8508   -3.8012    0.0000 C   0  0  0  0  0  0  0  0  0  0  0  0
    4.3659   -3.1338    0.0000 C   0  0  0  0  0  0  0  0  0  0  0  0
    3.5454   -3.2200    0.0000 N   0  0  0  0  0  0  0  0  0  0  0  0
    3.2099   -3.9737    0.0000 C   0  0  0  0  0  0  0  0  0  0  0  0
    3.6948   -4.6411    0.0000 C   0  0  0  0  0  0  0  0  0  0  0  0
    4.5153   -4.5549    0.0000 C   0  0  0  0  0  0  0  0  0  0  0  0
    5.0002   -5.2224    0.0000 C   0  0  0  0  0  0  0  0  0  0  0  0
    4.6646   -5.9760    0.0000 C   0  0  0  0  0  0  0  0  0  0  0  0
    3.8441   -6.0623    0.0000 C   0  0  0  0  0  0  0  0  0  0  0  0
    3.3592   -5.3948    0.0000 C   0  0  0  0  0  0  0  0  0  0  0  0
    2.5387   -5.4811    0.0000 N   0  0  0  0  0  0  0  0  0  0  0  0
    2.0538   -4.8136    0.0000 C   0  0  0  0  0  0  0  0  0  0  0  0
    1.2333   -4.8999    0.0000 C   0  0  0  0  0  0  0  0  0  0  0  0
    0.7484   -4.2324    0.0000 C   0  0  0  0  0  0  0  0  0  0  0  0
    1.0840   -3.4787    0.0000 C   0  0  0  0  0  0  0  0  0  0  0  0
    1.9045   -3.3925    0.0000 C   0  0  0  0  0  0  0  0  0  0  0  0
    2.3894   -4.0599    0.0000 C   0  0  0  0  0  0  0  0  0  0  0  0
    4.7015   -2.3801    0.0000 C   0  0  0  0  0  0  0  0  0  0  0  0
    5.4450   -0.8257    0.0000 N   0  0  0  0  0  0  0  0  0  0  0  0
    5.9970   -0.2126    0.0000 N   0  0  0  0  0  0  0  0  0  0  0  0
   12.4665   -0.5482    0.0000 N   0  0  0  0  0  0  0  0  0  0  0  0
   13.1809   -0.1357    0.0000 O   0  0  0  0  0  0  0  0  0  0  0  0
   10.6673   -1.2855    0.0000 H   0  0  0  0  0  0  0  0  0  0  0  0
   11.4078   -1.2855    0.0000 H   0  0  0  0  0  0  0  0  0  0  0  0
   10.6933    0.6015    0.0000 H   0  0  0  0  0  0  0  0  0  0  0  0
    9.9528    0.6015    0.0000 H   0  0  0  0  0  0  0  0  0  0  0  0
    9.2383   -1.2855    0.0000 H   0  0  0  0  0  0  0  0  0  0  0  0
    9.9788   -1.2855    0.0000 H   0  0  0  0  0  0  0  0  0  0  0  0
    9.2644    0.6015    0.0000 H   0  0  0  0  0  0  0  0  0  0  0  0
    8.5239    0.6015    0.0000 H   0  0  0  0  0  0  0  0  0  0  0  0
    7.8094   -1.2855    0.0000 H   0  0  0  0  0  0  0  0  0  0  0  0
    8.5499   -1.2855    0.0000 H   0  0  0  0  0  0  0  0  0  0  0  0
    7.8354    0.6015    0.0000 H   0  0  0  0  0  0  0  0  0  0  0  0
    7.0949    0.6015    0.0000 H   0  0  0  0  0  0  0  0  0  0  0  0
    7.2776   -1.9207    0.0000 H   0  0  0  0  0  0  0  0  0  0  0  0
    6.8273   -2.8751    0.0000 H   0  0  0  0  0  0  0  0  0  0  0  0
    6.1562   -4.3824    0.0000 H   0  0  0  0  0  0  0  0  0  0  0  0
    4.0303   -3.8875    0.0000 H   0  0  0  0  0  0  0  0  0  0  0  0
    3.0605   -2.5526    0.0000 H   0  0  0  0  0  0  0  0  0  0  0  0
    5.3357   -4.4687    0.0000 H   0  0  0  0  0  0  0  0  0  0  0  0
    5.7539   -5.5579    0.0000 H   0  0  0  0  0  0  0  0  0  0  0  0
    5.1495   -6.6435    0.0000 H   0  0  0  0  0  0  0  0  0  0  0  0
    3.5086   -6.8159    0.0000 H   0  0  0  0  0  0  0  0  0  0  0  0
    0.8978   -5.6535    0.0000 H   0  0  0  0  0  0  0  0  0  0  0  0
   -0.0721   -4.3187    0.0000 H   0  0  0  0  0  0  0  0  0  0  0  0
    0.5990   -2.8113    0.0000 H   0  0  0  0  0  0  0  0  0  0  0  0
    2.2400   -2.6388    0.0000 H   0  0  0  0  0  0  0  0  0  0  0  0
    4.2165   -1.7127    0.0000 H   0  0  0  0  0  0  0  0  0  0  0  0
   12.4665   -1.3732    0.0000 H   0  0  0  0  0  0  0  0  0  0  0  0
   13.8954   -0.5482    0.0000 H   0  0  0  0  0  0  0  0  0  0  0  0
  1  2  2  0  0  0  0
  2  3  1  0  0  0  0
  3  4  1  0  0  0  0
  4  5  1  0  0  0  0
  5  6  1  0  0  0  0
  6  7  1  0  0  0  0
  7  8  1  0  0  0  0
  8  9  1  0  0  0  0
  9 10  4  0  0  0  0
 10 11  4  0  0  0  0
 11 12  1  0  0  0  0
 12 13  4  0  0  0  0
 13 14  4  0  0  0  0
 14 15  4  0  0  0  0
 15 16  4  0  0  0  0
 16 17  1  0  0  0  0
 17 18  1  0  0  0  0
 18 19  4  0  0  0  0
 19 20  4  0  0  0  0
 20 21  4  0  0  0  0
 21 22  4  0  0  0  0
 22 23  4  0  0  0  0
 23 24  4  0  0  0  0
 19 24  4  0  0  0  0
 24 25  4  0  0  0  0
 25 26  4  0  0  0  0
 26 27  4  0  0  0  0
 27 28  4  0  0  0  0
 28 29  4  0  0  0  0
 29 30  4  0  0  0  0
 30 31  4  0  0  0  0
 18 31  4  0  0  0  0
 26 31  4  0  0  0  0
 16 32  4  0  0  0  0
 12 32  4  0  0  0  0
 11 33  4  0  0  0  0
 33 34  4  0  0  0  0
  9 34  4  0  0  0  0
  2 35  1  0  0  0  0
 35 36  1  0  0  0  0
  3 37  1  0  0  0  0
  3 38  1  0  0  0  0
  4 39  1  0  0  0  0
  4 40  1  0  0  0  0
  5 41  1  0  0  0  0
  5 42  1  0  0  0  0
  6 43  1  0  0  0  0
  6 44  1  0  0  0  0
  7 45  1  0  0  0  0
  7 46  1  0  0  0  0
  8 47  1  0  0  0  0
  8 48  1  0  0  0  0
 10 49  1  0  0  0  0
 13 50  1  0  0  0  0
 14 51  1  0  0  0  0
 15 52  1  0  0  0  0
 17 53  1  0  0  0  0
 20 54  1  0  0  0  0
 21 55  1  0  0  0  0
 22 56  1  0  0  0  0
 23 57  1  0  0  0  0
 27 58  1  0  0  0  0
 28 59  1  0  0  0  0
 29 60  1  0  0  0  0
 30 61  1  0  0  0  0
 32 62  1  0  0  0  0
 35 63  1  0  0  0  0
 36 64  1  0  0  0  0
M  END
>  <Molecule ChEMBL ID>
CHEMBL4240694

>  <Compound Key>
8d

>  <Active>
1

>  <StandardizerResult>
Dearomatize (ID: Dearomatize)
Clear Stereo (ID: ClearStereo)
Wedge Clean (ID: WedgeClean)
Mesomerize (ID: Mesomerize)
Tautomerize (ID: Tautomerize)
Aromatize (ID: Aromatize)
Add Explicit Hydrogens (ID: AddExplicitH)
Neutralize (ID: Neutralize)
Clean 2D (ID: Clean2D)


$$$$

  Mrv1551102232211292D          

 37 39  0  0  0  0            999 V2000
    2.5820   -6.1716    0.0000 O   0  0  0  0  0  0  0  0  0  0  0  0
    1.7751   -6.3431    0.0000 C   0  0  0  0  0  0  0  0  0  0  0  0
    1.2230   -5.7301    0.0000 C   0  0  0  0  0  0  0  0  0  0  0  0
    1.4780   -4.9454    0.0000 C   0  0  0  0  0  0  0  0  0  0  0  0
    0.9259   -4.3323    0.0000 C   0  0  0  0  0  0  0  0  0  0  0  0
    0.1190   -4.5039    0.0000 C   0  0  0  0  0  0  0  0  0  0  0  0
   -0.4331   -3.8908    0.0000 C   0  0  0  0  0  0  0  0  0  0  0  0
   -0.1781   -3.1061    0.0000 C   0  0  0  0  0  0  0  0  0  0  0  0
    0.6288   -2.9346    0.0000 C   0  0  0  0  0  0  0  0  0  0  0  0
    0.8838   -2.1500    0.0000 S   0  0  0  0  0  0  0  0  0  0  0  0
    0.0992   -1.8951    0.0000 O   0  0  0  0  0  0  0  0  0  0  0  0
    1.6684   -2.4049    0.0000 O   0  0  0  0  0  0  0  0  0  0  0  0
    1.1387   -1.3654    0.0000 N   0  0  0  0  0  0  0  0  0  0  0  0
    0.6538   -0.6979    0.0000 C   0  0  0  0  0  0  0  0  0  0  0  0
    1.1387   -0.0305    0.0000 C   0  0  0  0  0  0  0  0  0  0  0  0
    1.9233   -0.2854    0.0000 C   0  0  0  0  0  0  0  0  0  0  0  0
    2.6378    0.1271    0.0000 C   0  0  0  0  0  0  0  0  0  0  0  0
    3.3523   -0.2854    0.0000 C   0  0  0  0  0  0  0  0  0  0  0  0
    3.3523   -1.1104    0.0000 C   0  0  0  0  0  0  0  0  0  0  0  0
    2.6378   -1.5229    0.0000 N   0  0  0  0  0  0  0  0  0  0  0  0
    1.9233   -1.1104    0.0000 C   0  0  0  0  0  0  0  0  0  0  0  0
    1.1809   -3.5477    0.0000 C   0  0  0  0  0  0  0  0  0  0  0  0
    1.5201   -7.1278    0.0000 N   0  0  0  0  0  0  0  0  0  0  0  0
    2.0722   -7.7409    0.0000 O   0  0  0  0  0  0  0  0  0  0  0  0
    0.4161   -5.9016    0.0000 H   0  0  0  0  0  0  0  0  0  0  0  0
    2.2849   -4.7739    0.0000 H   0  0  0  0  0  0  0  0  0  0  0  0
   -0.1360   -5.2885    0.0000 H   0  0  0  0  0  0  0  0  0  0  0  0
   -1.2400   -4.0623    0.0000 H   0  0  0  0  0  0  0  0  0  0  0  0
   -0.7302   -2.4931    0.0000 H   0  0  0  0  0  0  0  0  0  0  0  0
   -0.1712   -0.6979    0.0000 H   0  0  0  0  0  0  0  0  0  0  0  0
    0.8838    0.7541    0.0000 H   0  0  0  0  0  0  0  0  0  0  0  0
    2.6378    0.9521    0.0000 H   0  0  0  0  0  0  0  0  0  0  0  0
    4.0668    0.1271    0.0000 H   0  0  0  0  0  0  0  0  0  0  0  0
    4.0668   -1.5229    0.0000 H   0  0  0  0  0  0  0  0  0  0  0  0
    1.9878   -3.3762    0.0000 H   0  0  0  0  0  0  0  0  0  0  0  0
    0.7132   -7.2993    0.0000 H   0  0  0  0  0  0  0  0  0  0  0  0
    1.8172   -8.5255    0.0000 H   0  0  0  0  0  0  0  0  0  0  0  0
  1  2  2  0  0  0  0
  3  2  1  4  0  0  0
  3  4  2  0  0  0  0
  4  5  1  0  0  0  0
  5  6  4  0  0  0  0
  6  7  4  0  0  0  0
  7  8  4  0  0  0  0
  8  9  4  0  0  0  0
  9 10  1  0  0  0  0
 10 11  2  0  0  0  0
 10 12  2  0  0  0  0
 10 13  1  0  0  0  0
 13 14  4  0  0  0  0
 14 15  4  0  0  0  0
 15 16  4  0  0  0  0
 16 17  4  0  0  0  0
 17 18  4  0  0  0  0
 18 19  4  0  0  0  0
 19 20  4  0  0  0  0
 20 21  4  0  0  0  0
 16 21  4  0  0  0  0
 13 21  4  0  0  0  0
  9 22  4  0  0  0  0
  5 22  4  0  0  0  0
  2 23  1  0  0  0  0
 23 24  1  0  0  0  0
  3 25  1  0  0  0  0
  4 26  1  0  0  0  0
  6 27  1  0  0  0  0
  7 28  1  0  0  0  0
  8 29  1  0  0  0  0
 14 30  1  0  0  0  0
 15 31  1  0  0  0  0
 17 32  1  0  0  0  0
 18 33  1  0  0  0  0
 19 34  1  0  0  0  0
 22 35  1  0  0  0  0
 23 36  1  0  0  0  0
 24 37  1  0  0  0  0
M  END
>  <Molecule ChEMBL ID>
CHEMBL3262727

>  <Compound Key>
12

>  <Active>
1

>  <StandardizerResult>
Dearomatize (ID: Dearomatize)
Clear Stereo (ID: ClearStereo)
Wedge Clean (ID: WedgeClean)
Mesomerize (ID: Mesomerize)
Tautomerize (ID: Tautomerize)
Aromatize (ID: Aromatize)
Add Explicit Hydrogens (ID: AddExplicitH)
Neutralize (ID: Neutralize)
Clean 2D (ID: Clean2D)


$$$$

  Mrv1551102232211292D          

 48 49  0  0  0  0            999 V2000
   -0.7129   -1.2398    0.0000 C   0  0  0  0  0  0  0  0  0  0  0  0
   -0.7129   -2.0648    0.0000 C   0  0  0  0  0  0  0  0  0  0  0  0
    0.0015   -2.4773    0.0000 C   0  0  0  0  0  0  0  0  0  0  0  0
    0.0015   -3.3023    0.0000 C   0  0  0  0  0  0  0  0  0  0  0  0
    0.7160   -3.7148    0.0000 N   0  0  0  0  0  0  0  0  0  0  0  0
    0.7160   -4.5398    0.0000 C   0  0  0  0  0  0  0  0  0  0  0  0
    0.0015   -4.9523    0.0000 C   0  0  0  0  0  0  0  0  0  0  0  0
    0.0015   -5.7773    0.0000 C   0  0  0  0  0  0  0  0  0  0  0  0
   -0.7129   -6.1898    0.0000 C   0  0  0  0  0  0  0  0  0  0  0  0
   -1.4274   -5.7773    0.0000 C   0  0  0  0  0  0  0  0  0  0  0  0
   -2.1419   -6.1898    0.0000 C   0  0  0  0  0  0  0  0  0  0  0  0
   -2.1419   -7.0148    0.0000 O   0  0  0  0  0  0  0  0  0  0  0  0
   -2.8564   -5.7773    0.0000 N   0  0  0  0  0  0  0  0  0  0  0  0
   -3.5708   -6.1898    0.0000 O   0  0  0  0  0  0  0  0  0  0  0  0
   -1.4274   -4.9523    0.0000 C   0  0  0  0  0  0  0  0  0  0  0  0
   -0.7129   -4.5398    0.0000 C   0  0  0  0  0  0  0  0  0  0  0  0
    1.4305   -3.3023    0.0000 C   0  0  0  0  0  0  0  0  0  0  0  0
    2.1449   -3.7148    0.0000 O   0  0  0  0  0  0  0  0  0  0  0  0
    1.4305   -2.4773    0.0000 N   0  0  0  0  0  0  0  0  0  0  0  0
    2.1449   -2.0648    0.0000 C   0  0  0  0  0  0  0  0  0  0  0  0
    2.1449   -1.2398    0.0000 C   0  0  0  0  0  0  0  0  0  0  0  0
    2.8594   -0.8273    0.0000 C   0  0  0  0  0  0  0  0  0  0  0  0
    3.5739   -1.2398    0.0000 C   0  0  0  0  0  0  0  0  0  0  0  0
    3.5739   -2.0648    0.0000 C   0  0  0  0  0  0  0  0  0  0  0  0
    2.8594   -2.4773    0.0000 C   0  0  0  0  0  0  0  0  0  0  0  0
    0.1121   -1.2398    0.0000 H   0  0  0  0  0  0  0  0  0  0  0  0
   -0.7129   -0.4148    0.0000 H   0  0  0  0  0  0  0  0  0  0  0  0
   -1.5379   -1.2398    0.0000 H   0  0  0  0  0  0  0  0  0  0  0  0
   -1.5366   -2.1127    0.0000 H   0  0  0  0  0  0  0  0  0  0  0  0
   -1.1663   -2.7541    0.0000 H   0  0  0  0  0  0  0  0  0  0  0  0
    0.8251   -2.4293    0.0000 H   0  0  0  0  0  0  0  0  0  0  0  0
    0.4549   -1.7880    0.0000 H   0  0  0  0  0  0  0  0  0  0  0  0
   -0.8221   -3.3502    0.0000 H   0  0  0  0  0  0  0  0  0  0  0  0
   -0.4518   -3.9916    0.0000 H   0  0  0  0  0  0  0  0  0  0  0  0
    1.1693   -5.2291    0.0000 H   0  0  0  0  0  0  0  0  0  0  0  0
    1.5396   -4.5877    0.0000 H   0  0  0  0  0  0  0  0  0  0  0  0
    0.7160   -6.1898    0.0000 H   0  0  0  0  0  0  0  0  0  0  0  0
   -0.7129   -7.0148    0.0000 H   0  0  0  0  0  0  0  0  0  0  0  0
   -2.8564   -4.9523    0.0000 H   0  0  0  0  0  0  0  0  0  0  0  0
   -4.2853   -5.7773    0.0000 H   0  0  0  0  0  0  0  0  0  0  0  0
   -2.1419   -4.5398    0.0000 H   0  0  0  0  0  0  0  0  0  0  0  0
   -1.3189   -3.9799    0.0000 H   0  0  0  0  0  0  0  0  0  0  0  0
    1.2486   -1.6726    0.0000 H   0  0  0  0  0  0  0  0  0  0  0  0
    1.4305   -0.8273    0.0000 H   0  0  0  0  0  0  0  0  0  0  0  0
    2.8594   -0.0023    0.0000 H   0  0  0  0  0  0  0  0  0  0  0  0
    4.2884   -0.8273    0.0000 H   0  0  0  0  0  0  0  0  0  0  0  0
    4.2884   -2.4773    0.0000 H   0  0  0  0  0  0  0  0  0  0  0  0
    2.8594   -3.3023    0.0000 H   0  0  0  0  0  0  0  0  0  0  0  0
  1  2  1  0  0  0  0
  2  3  1  0  0  0  0
  3  4  1  0  0  0  0
  4  5  1  0  0  0  0
  5  6  1  0  0  0  0
  6  7  1  0  0  0  0
  7  8  4  0  0  0  0
  8  9  4  0  0  0  0
  9 10  4  0  0  0  0
 10 11  1  0  0  0  0
 11 12  2  0  0  0  0
 11 13  1  0  0  0  0
 13 14  1  0  0  0  0
 10 15  4  0  0  0  0
 15 16  4  0  0  0  0
  7 16  4  0  0  0  0
  5 17  1  0  0  0  0
 17 18  2  0  0  0  0
 17 19  1  0  0  0  0
 19 20  1  0  0  0  0
 20 21  4  0  0  0  0
 21 22  4  0  0  0  0
 22 23  4  0  0  0  0
 23 24  4  0  0  0  0
 24 25  4  0  0  0  0
 20 25  4  0  0  0  0
  1 26  1  0  0  0  0
  1 27  1  0  0  0  0
  1 28  1  0  0  0  0
  2 29  1  0  0  0  0
  2 30  1  0  0  0  0
  3 31  1  0  0  0  0
  3 32  1  0  0  0  0
  4 33  1  0  0  0  0
  4 34  1  0  0  0  0
  6 35  1  0  0  0  0
  6 36  1  0  0  0  0
  8 37  1  0  0  0  0
  9 38  1  0  0  0  0
 13 39  1  0  0  0  0
 14 40  1  0  0  0  0
 15 41  1  0  0  0  0
 16 42  1  0  0  0  0
 19 43  1  0  0  0  0
 21 44  1  0  0  0  0
 22 45  1  0  0  0  0
 23 46  1  0  0  0  0
 24 47  1  0  0  0  0
 25 48  1  0  0  0  0
M  END
>  <Molecule ChEMBL ID>
CHEMBL2179618

>  <Compound Key>
Nexturastat A

>  <Active>
1

>  <StandardizerResult>
Dearomatize (ID: Dearomatize)
Clear Stereo (ID: ClearStereo)
Wedge Clean (ID: WedgeClean)
Mesomerize (ID: Mesomerize)
Tautomerize (ID: Tautomerize)
Aromatize (ID: Aromatize)
Add Explicit Hydrogens (ID: AddExplicitH)
Neutralize (ID: Neutralize)
Clean 2D (ID: Clean2D)


$$$$

  Mrv1551102232211292D          

 46 48  0  0  0  0            999 V2000
   -0.7145   -6.1875    0.0000 O   0  0  0  0  0  0  0  0  0  0  0  0
   -0.7145   -5.3625    0.0000 C   0  0  0  0  0  0  0  0  0  0  0  0
    0.0000   -4.9500    0.0000 C   0  0  0  0  0  0  0  0  0  0  0  0
    0.0000   -4.1250    0.0000 C   0  0  0  0  0  0  0  0  0  0  0  0
    0.7145   -3.7125    0.0000 C   0  0  0  0  0  0  0  0  0  0  0  0
    0.7145   -2.8875    0.0000 C   0  0  0  0  0  0  0  0  0  0  0  0
    1.4289   -2.4750    0.0000 C   0  0  0  0  0  0  0  0  0  0  0  0
    2.1434   -2.8875    0.0000 C   0  0  0  0  0  0  0  0  0  0  0  0
    2.8579   -2.4750    0.0000 C   0  0  0  0  0  0  0  0  0  0  0  0
    3.5724   -2.8875    0.0000 C   0  0  0  0  0  0  0  0  0  0  0  0
    4.2868   -2.4750    0.0000 N   0  0  0  0  0  0  0  0  0  0  0  0
    5.0013   -2.8875    0.0000 C   0  0  0  0  0  0  0  0  0  0  0  0
    5.0013   -3.7125    0.0000 O   0  0  0  0  0  0  0  0  0  0  0  0
    5.7158   -2.4750    0.0000 C   0  0  0  0  0  0  0  0  0  0  0  0
    5.7158   -1.6500    0.0000 C   0  0  0  0  0  0  0  0  0  0  0  0
    6.4302   -1.2375    0.0000 C   0  0  0  0  0  0  0  0  0  0  0  0
    7.1447   -1.6500    0.0000 C   0  0  0  0  0  0  0  0  0  0  0  0
    7.8592   -1.2375    0.0000 N   0  0  0  0  0  0  0  0  0  0  0  0
    8.5737   -1.6500    0.0000 C   0  0  0  0  0  0  0  0  0  0  0  0
    8.5737   -2.4750    0.0000 C   0  0  0  0  0  0  0  0  0  0  0  0
    7.8592   -2.8875    0.0000 C   0  0  0  0  0  0  0  0  0  0  0  0
    7.1447   -2.4750    0.0000 C   0  0  0  0  0  0  0  0  0  0  0  0
    6.4302   -2.8875    0.0000 C   0  0  0  0  0  0  0  0  0  0  0  0
    2.1434   -3.7125    0.0000 C   0  0  0  0  0  0  0  0  0  0  0  0
    1.4289   -4.1250    0.0000 C   0  0  0  0  0  0  0  0  0  0  0  0
   -1.4289   -4.9500    0.0000 N   0  0  0  0  0  0  0  0  0  0  0  0
   -2.1434   -5.3625    0.0000 O   0  0  0  0  0  0  0  0  0  0  0  0
    0.7145   -5.3625    0.0000 H   0  0  0  0  0  0  0  0  0  0  0  0
   -0.7145   -3.7125    0.0000 H   0  0  0  0  0  0  0  0  0  0  0  0
    0.0000   -2.4750    0.0000 H   0  0  0  0  0  0  0  0  0  0  0  0
    1.4289   -1.6500    0.0000 H   0  0  0  0  0  0  0  0  0  0  0  0
    3.2281   -1.7378    0.0000 H   0  0  0  0  0  0  0  0  0  0  0  0
    2.4876   -1.7378    0.0000 H   0  0  0  0  0  0  0  0  0  0  0  0
    3.2021   -3.6247    0.0000 H   0  0  0  0  0  0  0  0  0  0  0  0
    3.9426   -3.6247    0.0000 H   0  0  0  0  0  0  0  0  0  0  0  0
    4.2868   -1.6500    0.0000 H   0  0  0  0  0  0  0  0  0  0  0  0
    5.0013   -1.2375    0.0000 H   0  0  0  0  0  0  0  0  0  0  0  0
    6.4302   -0.4125    0.0000 H   0  0  0  0  0  0  0  0  0  0  0  0
    9.2881   -1.2375    0.0000 H   0  0  0  0  0  0  0  0  0  0  0  0
    9.2881   -2.8875    0.0000 H   0  0  0  0  0  0  0  0  0  0  0  0
    7.8592   -3.7125    0.0000 H   0  0  0  0  0  0  0  0  0  0  0  0
    6.4302   -3.7125    0.0000 H   0  0  0  0  0  0  0  0  0  0  0  0
    2.8579   -4.1250    0.0000 H   0  0  0  0  0  0  0  0  0  0  0  0
    1.4289   -4.9500    0.0000 H   0  0  0  0  0  0  0  0  0  0  0  0
   -1.4289   -4.1250    0.0000 H   0  0  0  0  0  0  0  0  0  0  0  0
   -2.8579   -4.9500    0.0000 H   0  0  0  0  0  0  0  0  0  0  0  0
  1  2  2  0  0  0  0
  3  2  1  4  0  0  0
  3  4  2  0  0  0  0
  4  5  1  0  0  0  0
  5  6  4  0  0  0  0
  6  7  4  0  0  0  0
  7  8  4  0  0  0  0
  8  9  1  0  0  0  0
  9 10  1  0  0  0  0
 10 11  1  0  0  0  0
 11 12  1  0  0  0  0
 12 13  2  0  0  0  0
 12 14  1  0  0  0  0
 14 15  4  0  0  0  0
 15 16  4  0  0  0  0
 16 17  4  0  0  0  0
 17 18  4  0  0  0  0
 18 19  4  0  0  0  0
 19 20  4  0  0  0  0
 20 21  4  0  0  0  0
 21 22  4  0  0  0  0
 17 22  4  0  0  0  0
 22 23  4  0  0  0  0
 14 23  4  0  0  0  0
  8 24  4  0  0  0  0
 24 25  4  0  0  0  0
  5 25  4  0  0  0  0
  2 26  1  0  0  0  0
 26 27  1  0  0  0  0
  3 28  1  0  0  0  0
  4 29  1  0  0  0  0
  6 30  1  0  0  0  0
  7 31  1  0  0  0  0
  9 32  1  0  0  0  0
  9 33  1  0  0  0  0
 10 34  1  0  0  0  0
 10 35  1  0  0  0  0
 11 36  1  0  0  0  0
 15 37  1  0  0  0  0
 16 38  1  0  0  0  0
 19 39  1  0  0  0  0
 20 40  1  0  0  0  0
 21 41  1  0  0  0  0
 23 42  1  0  0  0  0
 24 43  1  0  0  0  0
 25 44  1  0  0  0  0
 26 45  1  0  0  0  0
 27 46  1  0  0  0  0
M  END
>  <Molecule ChEMBL ID>
CHEMBL4069152

>  <Compound Key>
15f

>  <Active>
1

>  <StandardizerResult>
Dearomatize (ID: Dearomatize)
Clear Stereo (ID: ClearStereo)
Wedge Clean (ID: WedgeClean)
Mesomerize (ID: Mesomerize)
Tautomerize (ID: Tautomerize)
Aromatize (ID: Aromatize)
Add Explicit Hydrogens (ID: AddExplicitH)
Neutralize (ID: Neutralize)
Clean 2D (ID: Clean2D)


$$$$

  Mrv1551102232211292D          

 64 66  0  0  0  0            999 V2000
   -4.4918    0.9565    0.0000 C   0  0  0  0  0  0  0  0  0  0  0  0
   -4.7468    1.7411    0.0000 O   0  0  0  0  0  0  0  0  0  0  0  0
   -4.1947    2.3542    0.0000 C   0  0  0  0  0  0  0  0  0  0  0  0
   -4.4497    3.1388    0.0000 C   0  0  0  0  0  0  0  0  0  0  0  0
   -3.8976    3.7519    0.0000 C   0  0  0  0  0  0  0  0  0  0  0  0
   -3.0907    3.5804    0.0000 C   0  0  0  0  0  0  0  0  0  0  0  0
   -2.8357    2.7958    0.0000 C   0  0  0  0  0  0  0  0  0  0  0  0
   -2.0107    2.7958    0.0000 C   0  0  0  0  0  0  0  0  0  0  0  0
   -1.7558    3.5804    0.0000 C   0  0  0  0  0  0  0  0  0  0  0  0
   -2.4232    4.0653    0.0000 N   0  0  0  0  0  0  0  0  0  0  0  0
   -2.4232    4.8903    0.0000 C   0  0  0  0  0  0  0  0  0  0  0  0
   -1.7088    5.3028    0.0000 C   0  0  0  0  0  0  0  0  0  0  0  0
   -1.7088    6.1278    0.0000 O   0  0  0  0  0  0  0  0  0  0  0  0
   -0.9943    6.5403    0.0000 C   0  0  0  0  0  0  0  0  0  0  0  0
   -0.9943    7.3653    0.0000 C   0  0  0  0  0  0  0  0  0  0  0  0
   -0.2798    7.7778    0.0000 C   0  0  0  0  0  0  0  0  0  0  0  0
    0.4347    7.3653    0.0000 C   0  0  0  0  0  0  0  0  0  0  0  0
    1.1491    7.7778    0.0000 N   0  0  0  0  0  0  0  0  0  0  0  0
    1.8636    7.3653    0.0000 C   0  0  0  0  0  0  0  0  0  0  0  0
    1.8636    6.5403    0.0000 O   0  0  0  0  0  0  0  0  0  0  0  0
    2.5781    7.7778    0.0000 C   0  0  0  0  0  0  0  0  0  0  0  0
    3.2925    7.3653    0.0000 C   0  0  0  0  0  0  0  0  0  0  0  0
    4.0070    7.7778    0.0000 C   0  0  0  0  0  0  0  0  0  0  0  0
    4.7215    7.3653    0.0000 C   0  0  0  0  0  0  0  0  0  0  0  0
    5.4360    7.7778    0.0000 C   0  0  0  0  0  0  0  0  0  0  0  0
    6.1504    7.3653    0.0000 C   0  0  0  0  0  0  0  0  0  0  0  0
    6.8649    7.7778    0.0000 C   0  0  0  0  0  0  0  0  0  0  0  0
    6.8649    8.6028    0.0000 O   0  0  0  0  0  0  0  0  0  0  0  0
    7.5794    7.3653    0.0000 N   0  0  0  0  0  0  0  0  0  0  0  0
    8.2938    7.7778    0.0000 O   0  0  0  0  0  0  0  0  0  0  0  0
    0.4347    6.5403    0.0000 C   0  0  0  0  0  0  0  0  0  0  0  0
   -0.2798    6.1278    0.0000 C   0  0  0  0  0  0  0  0  0  0  0  0
   -3.3878    2.1827    0.0000 C   0  0  0  0  0  0  0  0  0  0  0  0
   -5.2764    0.7015    0.0000 H   0  0  0  0  0  0  0  0  0  0  0  0
   -4.2369    0.1719    0.0000 H   0  0  0  0  0  0  0  0  0  0  0  0
   -3.7072    1.2114    0.0000 H   0  0  0  0  0  0  0  0  0  0  0  0
   -5.2566    3.3103    0.0000 H   0  0  0  0  0  0  0  0  0  0  0  0
   -4.1526    4.5365    0.0000 H   0  0  0  0  0  0  0  0  0  0  0  0
   -1.5258    2.1283    0.0000 H   0  0  0  0  0  0  0  0  0  0  0  0
   -0.9712    3.8353    0.0000 H   0  0  0  0  0  0  0  0  0  0  0  0
   -2.8766    5.5796    0.0000 H   0  0  0  0  0  0  0  0  0  0  0  0
   -3.2468    4.9383    0.0000 H   0  0  0  0  0  0  0  0  0  0  0  0
   -1.2554    4.6135    0.0000 H   0  0  0  0  0  0  0  0  0  0  0  0
   -0.8851    5.2548    0.0000 H   0  0  0  0  0  0  0  0  0  0  0  0
   -1.7088    7.7778    0.0000 H   0  0  0  0  0  0  0  0  0  0  0  0
   -0.2798    8.6028    0.0000 H   0  0  0  0  0  0  0  0  0  0  0  0
    1.1491    8.6028    0.0000 H   0  0  0  0  0  0  0  0  0  0  0  0
    2.9483    8.5151    0.0000 H   0  0  0  0  0  0  0  0  0  0  0  0
    2.2078    8.5151    0.0000 H   0  0  0  0  0  0  0  0  0  0  0  0
    2.9223    6.6281    0.0000 H   0  0  0  0  0  0  0  0  0  0  0  0
    3.6628    6.6281    0.0000 H   0  0  0  0  0  0  0  0  0  0  0  0
    4.3773    8.5151    0.0000 H   0  0  0  0  0  0  0  0  0  0  0  0
    3.6368    8.5151    0.0000 H   0  0  0  0  0  0  0  0  0  0  0  0
    4.3512    6.6281    0.0000 H   0  0  0  0  0  0  0  0  0  0  0  0
    5.0917    6.6281    0.0000 H   0  0  0  0  0  0  0  0  0  0  0  0
    5.8062    8.5151    0.0000 H   0  0  0  0  0  0  0  0  0  0  0  0
    5.0657    8.5151    0.0000 H   0  0  0  0  0  0  0  0  0  0  0  0
    5.7802    6.6281    0.0000 H   0  0  0  0  0  0  0  0  0  0  0  0
    6.5207    6.6281    0.0000 H   0  0  0  0  0  0  0  0  0  0  0  0
    7.5794    6.5403    0.0000 H   0  0  0  0  0  0  0  0  0  0  0  0
    9.0083    7.3653    0.0000 H   0  0  0  0  0  0  0  0  0  0  0  0
    1.1491    6.1278    0.0000 H   0  0  0  0  0  0  0  0  0  0  0  0
   -0.2798    5.3028    0.0000 H   0  0  0  0  0  0  0  0  0  0  0  0
   -3.1328    1.3980    0.0000 H   0  0  0  0  0  0  0  0  0  0  0  0
  1  2  1  0  0  0  0
  2  3  1  0  0  0  0
  3  4  4  0  0  0  0
  4  5  4  0  0  0  0
  5  6  4  0  0  0  0
  6  7  4  0  0  0  0
  7  8  4  0  0  0  0
  8  9  4  0  0  0  0
  9 10  4  0  0  0  0
  6 10  4  0  0  0  0
 10 11  1  0  0  0  0
 11 12  1  0  0  0  0
 12 13  1  0  0  0  0
 13 14  1  0  0  0  0
 14 15  4  0  0  0  0
 15 16  4  0  0  0  0
 16 17  4  0  0  0  0
 17 18  1  0  0  0  0
 18 19  1  0  0  0  0
 19 20  2  0  0  0  0
 19 21  1  0  0  0  0
 21 22  1  0  0  0  0
 22 23  1  0  0  0  0
 23 24  1  0  0  0  0
 24 25  1  0  0  0  0
 25 26  1  0  0  0  0
 26 27  1  0  0  0  0
 27 28  2  0  0  0  0
 27 29  1  0  0  0  0
 29 30  1  0  0  0  0
 17 31  4  0  0  0  0
 31 32  4  0  0  0  0
 14 32  4  0  0  0  0
  7 33  4  0  0  0  0
  3 33  4  0  0  0  0
  1 34  1  0  0  0  0
  1 35  1  0  0  0  0
  1 36  1  0  0  0  0
  4 37  1  0  0  0  0
  5 38  1  0  0  0  0
  8 39  1  0  0  0  0
  9 40  1  0  0  0  0
 11 41  1  0  0  0  0
 11 42  1  0  0  0  0
 12 43  1  0  0  0  0
 12 44  1  0  0  0  0
 15 45  1  0  0  0  0
 16 46  1  0  0  0  0
 18 47  1  0  0  0  0
 21 48  1  0  0  0  0
 21 49  1  0  0  0  0
 22 50  1  0  0  0  0
 22 51  1  0  0  0  0
 23 52  1  0  0  0  0
 23 53  1  0  0  0  0
 24 54  1  0  0  0  0
 24 55  1  0  0  0  0
 25 56  1  0  0  0  0
 25 57  1  0  0  0  0
 26 58  1  0  0  0  0
 26 59  1  0  0  0  0
 29 60  1  0  0  0  0
 30 61  1  0  0  0  0
 31 62  1  0  0  0  0
 32 63  1  0  0  0  0
 33 64  1  0  0  0  0
M  END
>  <Molecule ChEMBL ID>
CHEMBL4159460

>  <Compound Key>
6k

>  <Active>
1

>  <StandardizerResult>
Dearomatize (ID: Dearomatize)
Clear Stereo (ID: ClearStereo)
Wedge Clean (ID: WedgeClean)
Mesomerize (ID: Mesomerize)
Tautomerize (ID: Tautomerize)
Aromatize (ID: Aromatize)
Add Explicit Hydrogens (ID: AddExplicitH)
Neutralize (ID: Neutralize)
Clean 2D (ID: Clean2D)


$$$$

  Mrv1551102232211292D          

 52 53  0  0  0  0            999 V2000
   -7.1694    4.2394    0.0000 C   0  0  0  0  0  0  0  0  0  0  0  0
   -6.3489    4.1532    0.0000 C   0  0  0  0  0  0  0  0  0  0  0  0
   -6.0133    3.3995    0.0000 O   0  0  0  0  0  0  0  0  0  0  0  0
   -5.8640    4.8206    0.0000 N   0  0  0  0  0  0  0  0  0  0  0  0
   -5.0435    4.7344    0.0000 C   0  0  0  0  0  0  0  0  0  0  0  0
   -4.5586    5.4018    0.0000 C   0  0  0  0  0  0  0  0  0  0  0  0
   -3.7381    5.3156    0.0000 C   0  0  0  0  0  0  0  0  0  0  0  0
   -3.4025    4.5619    0.0000 C   0  0  0  0  0  0  0  0  0  0  0  0
   -2.5820    4.4757    0.0000 C   0  0  0  0  0  0  0  0  0  0  0  0
   -2.0300    5.0887    0.0000 C   0  0  0  0  0  0  0  0  0  0  0  0
   -1.2763    4.7532    0.0000 C   0  0  0  0  0  0  0  0  0  0  0  0
   -0.5619    5.1657    0.0000 C   0  0  0  0  0  0  0  0  0  0  0  0
   -0.5619    5.9907    0.0000 O   0  0  0  0  0  0  0  0  0  0  0  0
    0.1526    4.7532    0.0000 N   0  0  0  0  0  0  0  0  0  0  0  0
    0.8671    5.1657    0.0000 C   0  0  0  0  0  0  0  0  0  0  0  0
    1.5815    4.7532    0.0000 C   0  0  0  0  0  0  0  0  0  0  0  0
    2.2960    5.1657    0.0000 C   0  0  0  0  0  0  0  0  0  0  0  0
    3.0105    4.7532    0.0000 C   0  0  0  0  0  0  0  0  0  0  0  0
    3.7250    5.1657    0.0000 C   0  0  0  0  0  0  0  0  0  0  0  0
    4.4394    4.7532    0.0000 C   0  0  0  0  0  0  0  0  0  0  0  0
    5.1539    5.1657    0.0000 C   0  0  0  0  0  0  0  0  0  0  0  0
    5.1539    5.9907    0.0000 O   0  0  0  0  0  0  0  0  0  0  0  0
    5.8684    4.7532    0.0000 N   0  0  0  0  0  0  0  0  0  0  0  0
    6.5828    5.1657    0.0000 O   0  0  0  0  0  0  0  0  0  0  0  0
   -1.3626    3.9327    0.0000 N   0  0  0  0  0  0  0  0  0  0  0  0
   -2.1695    3.7612    0.0000 O   0  0  0  0  0  0  0  0  0  0  0  0
   -3.8875    3.8944    0.0000 C   0  0  0  0  0  0  0  0  0  0  0  0
   -4.7079    3.9807    0.0000 C   0  0  0  0  0  0  0  0  0  0  0  0
   -7.0831    5.0599    0.0000 H   0  0  0  0  0  0  0  0  0  0  0  0
   -7.9899    4.3256    0.0000 H   0  0  0  0  0  0  0  0  0  0  0  0
   -7.2556    3.4189    0.0000 H   0  0  0  0  0  0  0  0  0  0  0  0
   -6.1995    5.5743    0.0000 H   0  0  0  0  0  0  0  0  0  0  0  0
   -4.8941    6.1555    0.0000 H   0  0  0  0  0  0  0  0  0  0  0  0
   -3.2532    5.9830    0.0000 H   0  0  0  0  0  0  0  0  0  0  0  0
   -2.2015    5.8957    0.0000 H   0  0  0  0  0  0  0  0  0  0  0  0
    0.1526    3.9282    0.0000 H   0  0  0  0  0  0  0  0  0  0  0  0
    1.2373    5.9029    0.0000 H   0  0  0  0  0  0  0  0  0  0  0  0
    0.4968    5.9029    0.0000 H   0  0  0  0  0  0  0  0  0  0  0  0
    1.2113    4.0159    0.0000 H   0  0  0  0  0  0  0  0  0  0  0  0
    1.9518    4.0159    0.0000 H   0  0  0  0  0  0  0  0  0  0  0  0
    2.6663    5.9029    0.0000 H   0  0  0  0  0  0  0  0  0  0  0  0
    1.9258    5.9029    0.0000 H   0  0  0  0  0  0  0  0  0  0  0  0
    2.6402    4.0159    0.0000 H   0  0  0  0  0  0  0  0  0  0  0  0
    3.3807    4.0159    0.0000 H   0  0  0  0  0  0  0  0  0  0  0  0
    4.0952    5.9029    0.0000 H   0  0  0  0  0  0  0  0  0  0  0  0
    3.3547    5.9029    0.0000 H   0  0  0  0  0  0  0  0  0  0  0  0
    4.0692    4.0159    0.0000 H   0  0  0  0  0  0  0  0  0  0  0  0
    4.8097    4.0159    0.0000 H   0  0  0  0  0  0  0  0  0  0  0  0
    5.8684    3.9282    0.0000 H   0  0  0  0  0  0  0  0  0  0  0  0
    7.2973    4.7532    0.0000 H   0  0  0  0  0  0  0  0  0  0  0  0
   -3.5519    3.1408    0.0000 H   0  0  0  0  0  0  0  0  0  0  0  0
   -5.1929    3.3132    0.0000 H   0  0  0  0  0  0  0  0  0  0  0  0
  1  2  1  0  0  0  0
  2  3  2  0  0  0  0
  2  4  1  0  0  0  0
  4  5  1  0  0  0  0
  5  6  4  0  0  0  0
  6  7  4  0  0  0  0
  7  8  4  0  0  0  0
  8  9  1  0  0  0  0
  9 10  4  0  0  0  0
 10 11  4  0  0  0  0
 11 12  1  0  0  0  0
 12 13  2  0  0  0  0
 12 14  1  0  0  0  0
 14 15  1  0  0  0  0
 15 16  1  0  0  0  0
 16 17  1  0  0  0  0
 17 18  1  0  0  0  0
 18 19  1  0  0  0  0
 19 20  1  0  0  0  0
 20 21  1  0  0  0  0
 21 22  2  0  0  0  0
 21 23  1  0  0  0  0
 23 24  1  0  0  0  0
 11 25  4  0  0  0  0
 25 26  4  0  0  0  0
  9 26  4  0  0  0  0
  8 27  4  0  0  0  0
 27 28  4  0  0  0  0
  5 28  4  0  0  0  0
  1 29  1  0  0  0  0
  1 30  1  0  0  0  0
  1 31  1  0  0  0  0
  4 32  1  0  0  0  0
  6 33  1  0  0  0  0
  7 34  1  0  0  0  0
 10 35  1  0  0  0  0
 14 36  1  0  0  0  0
 15 37  1  0  0  0  0
 15 38  1  0  0  0  0
 16 39  1  0  0  0  0
 16 40  1  0  0  0  0
 17 41  1  0  0  0  0
 17 42  1  0  0  0  0
 18 43  1  0  0  0  0
 18 44  1  0  0  0  0
 19 45  1  0  0  0  0
 19 46  1  0  0  0  0
 20 47  1  0  0  0  0
 20 48  1  0  0  0  0
 23 49  1  0  0  0  0
 24 50  1  0  0  0  0
 27 51  1  0  0  0  0
 28 52  1  0  0  0  0
M  END
>  <Molecule ChEMBL ID>
CHEMBL468842

>  <Compound Key>
11

>  <Active>
1

>  <StandardizerResult>
Dearomatize (ID: Dearomatize)
Clear Stereo (ID: ClearStereo)
Wedge Clean (ID: WedgeClean)
Mesomerize (ID: Mesomerize)
Tautomerize (ID: Tautomerize)
Aromatize (ID: Aromatize)
Add Explicit Hydrogens (ID: AddExplicitH)
Neutralize (ID: Neutralize)
Clean 2D (ID: Clean2D)


$$$$

  Mrv1551102232211292D          

 44 46  0  0  0  0            999 V2000
   -4.2873   -5.7750    0.0000 O   0  0  0  0  0  0  0  0  0  0  0  0
   -4.2873   -4.9500    0.0000 C   0  0  0  0  0  0  0  0  0  0  0  0
   -3.5728   -4.5375    0.0000 C   0  0  0  0  0  0  0  0  0  0  0  0
   -3.5728   -3.7125    0.0000 C   0  0  0  0  0  0  0  0  0  0  0  0
   -2.8583   -3.3000    0.0000 C   0  0  0  0  0  0  0  0  0  0  0  0
   -2.8583   -2.4750    0.0000 C   0  0  0  0  0  0  0  0  0  0  0  0
   -2.1439   -2.0625    0.0000 C   0  0  0  0  0  0  0  0  0  0  0  0
   -1.4294   -2.4750    0.0000 C   0  0  0  0  0  0  0  0  0  0  0  0
   -0.7149   -2.0625    0.0000 C   0  0  0  0  0  0  0  0  0  0  0  0
   -0.0004   -2.4750    0.0000 C   0  0  0  0  0  0  0  0  0  0  0  0
    0.7140   -2.0625    0.0000 N   0  0  0  0  0  0  0  0  0  0  0  0
    1.4285   -2.4750    0.0000 C   0  0  0  0  0  0  0  0  0  0  0  0
    1.4285   -3.3000    0.0000 O   0  0  0  0  0  0  0  0  0  0  0  0
    2.1430   -2.0625    0.0000 C   0  0  0  0  0  0  0  0  0  0  0  0
    2.1430   -1.2375    0.0000 C   0  0  0  0  0  0  0  0  0  0  0  0
    2.8574   -0.8250    0.0000 C   0  0  0  0  0  0  0  0  0  0  0  0
    3.5719   -1.2375    0.0000 C   0  0  0  0  0  0  0  0  0  0  0  0
    3.5719   -2.0625    0.0000 C   0  0  0  0  0  0  0  0  0  0  0  0
    2.8574   -2.4750    0.0000 C   0  0  0  0  0  0  0  0  0  0  0  0
    4.3565   -2.3174    0.0000 O   0  0  0  0  0  0  0  0  0  0  0  0
    4.8415   -1.6500    0.0000 C   0  0  0  0  0  0  0  0  0  0  0  0
    4.3565   -0.9826    0.0000 O   0  0  0  0  0  0  0  0  0  0  0  0
   -1.4294   -3.3000    0.0000 C   0  0  0  0  0  0  0  0  0  0  0  0
   -2.1439   -3.7125    0.0000 C   0  0  0  0  0  0  0  0  0  0  0  0
   -5.0017   -4.5375    0.0000 N   0  0  0  0  0  0  0  0  0  0  0  0
   -5.7162   -4.9500    0.0000 O   0  0  0  0  0  0  0  0  0  0  0  0
   -2.8583   -4.9500    0.0000 H   0  0  0  0  0  0  0  0  0  0  0  0
   -4.2873   -3.3000    0.0000 H   0  0  0  0  0  0  0  0  0  0  0  0
   -3.5728   -2.0625    0.0000 H   0  0  0  0  0  0  0  0  0  0  0  0
   -2.1439   -1.2375    0.0000 H   0  0  0  0  0  0  0  0  0  0  0  0
   -0.3447   -1.3253    0.0000 H   0  0  0  0  0  0  0  0  0  0  0  0
   -1.0852   -1.3253    0.0000 H   0  0  0  0  0  0  0  0  0  0  0  0
   -0.3707   -3.2122    0.0000 H   0  0  0  0  0  0  0  0  0  0  0  0
    0.3698   -3.2122    0.0000 H   0  0  0  0  0  0  0  0  0  0  0  0
    0.7140   -1.2375    0.0000 H   0  0  0  0  0  0  0  0  0  0  0  0
    1.4285   -0.8250    0.0000 H   0  0  0  0  0  0  0  0  0  0  0  0
    2.8574    0.0000    0.0000 H   0  0  0  0  0  0  0  0  0  0  0  0
    2.8574   -3.3000    0.0000 H   0  0  0  0  0  0  0  0  0  0  0  0
    5.5699   -2.0373    0.0000 H   0  0  0  0  0  0  0  0  0  0  0  0
    5.5699   -1.2627    0.0000 H   0  0  0  0  0  0  0  0  0  0  0  0
   -0.7149   -3.7125    0.0000 H   0  0  0  0  0  0  0  0  0  0  0  0
   -2.1439   -4.5375    0.0000 H   0  0  0  0  0  0  0  0  0  0  0  0
   -5.0017   -3.7125    0.0000 H   0  0  0  0  0  0  0  0  0  0  0  0
   -6.4307   -4.5375    0.0000 H   0  0  0  0  0  0  0  0  0  0  0  0
  1  2  2  0  0  0  0
  3  2  1  4  0  0  0
  3  4  2  0  0  0  0
  4  5  1  0  0  0  0
  5  6  4  0  0  0  0
  6  7  4  0  0  0  0
  7  8  4  0  0  0  0
  8  9  1  0  0  0  0
  9 10  1  0  0  0  0
 10 11  1  0  0  0  0
 11 12  1  0  0  0  0
 12 13  2  0  0  0  0
 12 14  1  0  0  0  0
 14 15  4  0  0  0  0
 15 16  4  0  0  0  0
 16 17  4  0  0  0  0
 17 18  4  0  0  0  0
 18 19  4  0  0  0  0
 14 19  4  0  0  0  0
 18 20  1  0  0  0  0
 20 21  1  0  0  0  0
 21 22  1  0  0  0  0
 17 22  1  0  0  0  0
  8 23  4  0  0  0  0
 23 24  4  0  0  0  0
  5 24  4  0  0  0  0
  2 25  1  0  0  0  0
 25 26  1  0  0  0  0
  3 27  1  0  0  0  0
  4 28  1  0  0  0  0
  6 29  1  0  0  0  0
  7 30  1  0  0  0  0
  9 31  1  0  0  0  0
  9 32  1  0  0  0  0
 10 33  1  0  0  0  0
 10 34  1  0  0  0  0
 11 35  1  0  0  0  0
 15 36  1  0  0  0  0
 16 37  1  0  0  0  0
 19 38  1  0  0  0  0
 21 39  1  0  0  0  0
 21 40  1  0  0  0  0
 23 41  1  0  0  0  0
 24 42  1  0  0  0  0
 25 43  1  0  0  0  0
 26 44  1  0  0  0  0
M  END
>  <Molecule ChEMBL ID>
CHEMBL4078380

>  <Compound Key>
15c

>  <Active>
1

>  <StandardizerResult>
Dearomatize (ID: Dearomatize)
Clear Stereo (ID: ClearStereo)
Wedge Clean (ID: WedgeClean)
Mesomerize (ID: Mesomerize)
Tautomerize (ID: Tautomerize)
Aromatize (ID: Aromatize)
Add Explicit Hydrogens (ID: AddExplicitH)
Neutralize (ID: Neutralize)
Clean 2D (ID: Clean2D)


$$$$

  Mrv1551102232211292D          

 68 70  0  0  0  0            999 V2000
    4.7665   -3.7996    0.0000 C   0  0  0  0  0  0  0  0  0  0  0  0
    3.9595   -3.9711    0.0000 O   0  0  0  0  0  0  0  0  0  0  0  0
    3.4075   -3.3580    0.0000 C   0  0  0  0  0  0  0  0  0  0  0  0
    2.6005   -3.5295    0.0000 C   0  0  0  0  0  0  0  0  0  0  0  0
    2.0485   -2.9164    0.0000 C   0  0  0  0  0  0  0  0  0  0  0  0
    1.2235   -2.9164    0.0000 C   0  0  0  0  0  0  0  0  0  0  0  0
    0.9685   -2.1318    0.0000 C   0  0  0  0  0  0  0  0  0  0  0  0
    1.6360   -1.6469    0.0000 N   0  0  0  0  0  0  0  0  0  0  0  0
    1.6360   -0.8219    0.0000 C   0  0  0  0  0  0  0  0  0  0  0  0
    2.3504   -0.4094    0.0000 C   0  0  0  0  0  0  0  0  0  0  0  0
    2.3504    0.4156    0.0000 O   0  0  0  0  0  0  0  0  0  0  0  0
    3.0649    0.8281    0.0000 C   0  0  0  0  0  0  0  0  0  0  0  0
    3.0649    1.6531    0.0000 C   0  0  0  0  0  0  0  0  0  0  0  0
    3.7794    2.0656    0.0000 C   0  0  0  0  0  0  0  0  0  0  0  0
    4.4939    1.6531    0.0000 C   0  0  0  0  0  0  0  0  0  0  0  0
    5.2083    2.0656    0.0000 N   0  0  0  0  0  0  0  0  0  0  0  0
    5.9228    1.6531    0.0000 C   0  0  0  0  0  0  0  0  0  0  0  0
    5.9228    0.8281    0.0000 O   0  0  0  0  0  0  0  0  0  0  0  0
    6.6373    2.0656    0.0000 C   0  0  0  0  0  0  0  0  0  0  0  0
    7.3517    1.6531    0.0000 C   0  0  0  0  0  0  0  0  0  0  0  0
    8.0662    2.0656    0.0000 C   0  0  0  0  0  0  0  0  0  0  0  0
    8.7807    1.6531    0.0000 C   0  0  0  0  0  0  0  0  0  0  0  0
    9.4951    2.0656    0.0000 C   0  0  0  0  0  0  0  0  0  0  0  0
   10.2096    1.6531    0.0000 C   0  0  0  0  0  0  0  0  0  0  0  0
   10.9241    2.0656    0.0000 C   0  0  0  0  0  0  0  0  0  0  0  0
   10.9241    2.8906    0.0000 O   0  0  0  0  0  0  0  0  0  0  0  0
   11.6386    1.6531    0.0000 N   0  0  0  0  0  0  0  0  0  0  0  0
   12.3530    2.0656    0.0000 O   0  0  0  0  0  0  0  0  0  0  0  0
    4.4939    0.8281    0.0000 C   0  0  0  0  0  0  0  0  0  0  0  0
    3.7794    0.4156    0.0000 C   0  0  0  0  0  0  0  0  0  0  0  0
    2.3034   -2.1318    0.0000 C   0  0  0  0  0  0  0  0  0  0  0  0
    3.1104   -1.9603    0.0000 C   0  0  0  0  0  0  0  0  0  0  0  0
    3.6624   -2.5734    0.0000 C   0  0  0  0  0  0  0  0  0  0  0  0
    4.4694   -2.4019    0.0000 O   0  0  0  0  0  0  0  0  0  0  0  0
    5.0214   -3.0150    0.0000 C   0  0  0  0  0  0  0  0  0  0  0  0
    4.5115   -4.5842    0.0000 H   0  0  0  0  0  0  0  0  0  0  0  0
    5.3185   -4.4127    0.0000 H   0  0  0  0  0  0  0  0  0  0  0  0
    5.5734   -3.6280    0.0000 H   0  0  0  0  0  0  0  0  0  0  0  0
    2.3456   -4.3142    0.0000 H   0  0  0  0  0  0  0  0  0  0  0  0
    0.7385   -3.5839    0.0000 H   0  0  0  0  0  0  0  0  0  0  0  0
    0.1839   -1.8769    0.0000 H   0  0  0  0  0  0  0  0  0  0  0  0
    1.1826   -0.1326    0.0000 H   0  0  0  0  0  0  0  0  0  0  0  0
    0.8124   -0.7739    0.0000 H   0  0  0  0  0  0  0  0  0  0  0  0
    2.8038   -1.0987    0.0000 H   0  0  0  0  0  0  0  0  0  0  0  0
    3.1740   -0.4574    0.0000 H   0  0  0  0  0  0  0  0  0  0  0  0
    2.3504    2.0656    0.0000 H   0  0  0  0  0  0  0  0  0  0  0  0
    3.7794    2.8906    0.0000 H   0  0  0  0  0  0  0  0  0  0  0  0
    5.2083    2.8906    0.0000 H   0  0  0  0  0  0  0  0  0  0  0  0
    7.0075    2.8029    0.0000 H   0  0  0  0  0  0  0  0  0  0  0  0
    6.2670    2.8029    0.0000 H   0  0  0  0  0  0  0  0  0  0  0  0
    6.9815    0.9159    0.0000 H   0  0  0  0  0  0  0  0  0  0  0  0
    7.7220    0.9159    0.0000 H   0  0  0  0  0  0  0  0  0  0  0  0
    8.4365    2.8029    0.0000 H   0  0  0  0  0  0  0  0  0  0  0  0
    7.6959    2.8029    0.0000 H   0  0  0  0  0  0  0  0  0  0  0  0
    8.4104    0.9159    0.0000 H   0  0  0  0  0  0  0  0  0  0  0  0
    9.1509    0.9159    0.0000 H   0  0  0  0  0  0  0  0  0  0  0  0
    9.8654    2.8029    0.0000 H   0  0  0  0  0  0  0  0  0  0  0  0
    9.1249    2.8029    0.0000 H   0  0  0  0  0  0  0  0  0  0  0  0
    9.8394    0.9159    0.0000 H   0  0  0  0  0  0  0  0  0  0  0  0
   10.5799    0.9159    0.0000 H   0  0  0  0  0  0  0  0  0  0  0  0
   11.6386    0.8281    0.0000 H   0  0  0  0  0  0  0  0  0  0  0  0
   13.0675    1.6531    0.0000 H   0  0  0  0  0  0  0  0  0  0  0  0
    5.2083    0.4156    0.0000 H   0  0  0  0  0  0  0  0  0  0  0  0
    3.7794   -0.4094    0.0000 H   0  0  0  0  0  0  0  0  0  0  0  0
    3.8191   -1.5379    0.0000 H   0  0  0  0  0  0  0  0  0  0  0  0
    5.7863   -2.7059    0.0000 H   0  0  0  0  0  0  0  0  0  0  0  0
    5.4087   -2.2865    0.0000 H   0  0  0  0  0  0  0  0  0  0  0  0
    4.2144   -3.1865    0.0000 H   0  0  0  0  0  0  0  0  0  0  0  0
  1  2  1  0  0  0  0
  2  3  1  0  0  0  0
  3  4  4  0  0  0  0
  4  5  4  0  0  0  0
  5  6  4  0  0  0  0
  6  7  4  0  0  0  0
  7  8  4  0  0  0  0
  8  9  1  0  0  0  0
  9 10  1  0  0  0  0
 10 11  1  0  0  0  0
 11 12  1  0  0  0  0
 12 13  4  0  0  0  0
 13 14  4  0  0  0  0
 14 15  4  0  0  0  0
 15 16  1  0  0  0  0
 16 17  1  0  0  0  0
 17 18  2  0  0  0  0
 17 19  1  0  0  0  0
 19 20  1  0  0  0  0
 20 21  1  0  0  0  0
 21 22  1  0  0  0  0
 22 23  1  0  0  0  0
 23 24  1  0  0  0  0
 24 25  1  0  0  0  0
 25 26  2  0  0  0  0
 25 27  1  0  0  0  0
 27 28  1  0  0  0  0
 15 29  4  0  0  0  0
 29 30  4  0  0  0  0
 12 30  4  0  0  0  0
  8 31  4  0  0  0  0
  5 31  4  0  0  0  0
 31 32  4  0  0  0  0
 32 33  4  0  0  0  0
  3 33  4  0  0  0  0
 33 34  1  0  0  0  0
 34 35  1  0  0  0  0
  1 36  1  0  0  0  0
  1 37  1  0  0  0  0
  1 38  1  0  0  0  0
  4 39  1  0  0  0  0
  6 40  1  0  0  0  0
  7 41  1  0  0  0  0
  9 42  1  0  0  0  0
  9 43  1  0  0  0  0
 10 44  1  0  0  0  0
 10 45  1  0  0  0  0
 13 46  1  0  0  0  0
 14 47  1  0  0  0  0
 16 48  1  0  0  0  0
 19 49  1  0  0  0  0
 19 50  1  0  0  0  0
 20 51  1  0  0  0  0
 20 52  1  0  0  0  0
 21 53  1  0  0  0  0
 21 54  1  0  0  0  0
 22 55  1  0  0  0  0
 22 56  1  0  0  0  0
 23 57  1  0  0  0  0
 23 58  1  0  0  0  0
 24 59  1  0  0  0  0
 24 60  1  0  0  0  0
 27 61  1  0  0  0  0
 28 62  1  0  0  0  0
 29 63  1  0  0  0  0
 30 64  1  0  0  0  0
 32 65  1  0  0  0  0
 35 66  1  0  0  0  0
 35 67  1  0  0  0  0
 35 68  1  0  0  0  0
M  END
>  <Molecule ChEMBL ID>
CHEMBL4176214

>  <Compound Key>
6j

>  <Active>
1

>  <StandardizerResult>
Dearomatize (ID: Dearomatize)
Clear Stereo (ID: ClearStereo)
Wedge Clean (ID: WedgeClean)
Mesomerize (ID: Mesomerize)
Tautomerize (ID: Tautomerize)
Aromatize (ID: Aromatize)
Add Explicit Hydrogens (ID: AddExplicitH)
Neutralize (ID: Neutralize)
Clean 2D (ID: Clean2D)


$$$$

  Mrv1551102232211292D          

 59 62  0  0  0  0            999 V2000
    2.8563  -11.5429    0.0000 O   0  0  0  0  0  0  0  0  0  0  0  0
    2.1418  -11.1304    0.0000 C   0  0  0  0  0  0  0  0  0  0  0  0
    2.1418  -10.3054    0.0000 C   0  0  0  0  0  0  0  0  0  0  0  0
    1.4273   -9.8929    0.0000 C   0  0  0  0  0  0  0  0  0  0  0  0
    1.4273   -9.0679    0.0000 C   0  0  0  0  0  0  0  0  0  0  0  0
    0.7129   -8.6554    0.0000 C   0  0  0  0  0  0  0  0  0  0  0  0
    0.7129   -7.8304    0.0000 C   0  0  0  0  0  0  0  0  0  0  0  0
    1.4273   -7.4179    0.0000 C   0  0  0  0  0  0  0  0  0  0  0  0
    1.4273   -6.5929    0.0000 C   0  0  0  0  0  0  0  0  0  0  0  0
    2.1418   -6.1804    0.0000 C   0  0  0  0  0  0  0  0  0  0  0  0
    2.1418   -5.3554    0.0000 N   0  0  0  0  0  0  0  0  0  0  0  0
    2.8563   -4.9429    0.0000 C   0  0  0  0  0  0  0  0  0  0  0  0
    3.5707   -5.3554    0.0000 O   0  0  0  0  0  0  0  0  0  0  0  0
    2.8563   -4.1179    0.0000 C   0  0  0  0  0  0  0  0  0  0  0  0
    2.1418   -3.7054    0.0000 C   0  0  0  0  0  0  0  0  0  0  0  0
    2.1418   -2.8804    0.0000 C   0  0  0  0  0  0  0  0  0  0  0  0
    1.4273   -2.4679    0.0000 C   0  0  0  0  0  0  0  0  0  0  0  0
    1.4273   -1.6429    0.0000 C   0  0  0  0  0  0  0  0  0  0  0  0
    0.7129   -1.2304    0.0000 N   0  0  0  0  0  0  0  0  0  0  0  0
    0.7129   -0.4054    0.0000 N   0  0  0  0  0  0  0  0  0  0  0  0
    1.4273    0.0071    0.0000 C   0  0  0  0  0  0  0  0  0  0  0  0
    1.4273    0.8321    0.0000 O   0  0  0  0  0  0  0  0  0  0  0  0
    2.1418   -0.4054    0.0000 C   0  0  0  0  0  0  0  0  0  0  0  0
    2.8563    0.0071    0.0000 C   0  0  0  0  0  0  0  0  0  0  0  0
    3.5707   -0.4054    0.0000 C   0  0  0  0  0  0  0  0  0  0  0  0
    3.5707   -1.2304    0.0000 C   0  0  0  0  0  0  0  0  0  0  0  0
    2.8563   -1.6429    0.0000 C   0  0  0  0  0  0  0  0  0  0  0  0
    2.1418   -1.2304    0.0000 C   0  0  0  0  0  0  0  0  0  0  0  0
    2.8563   -2.4679    0.0000 C   0  0  0  0  0  0  0  0  0  0  0  0
    3.5707   -2.8804    0.0000 C   0  0  0  0  0  0  0  0  0  0  0  0
    3.5707   -3.7054    0.0000 C   0  0  0  0  0  0  0  0  0  0  0  0
    4.2852   -4.1179    0.0000 F   0  0  0  0  0  0  0  0  0  0  0  0
    2.1418   -7.8304    0.0000 C   0  0  0  0  0  0  0  0  0  0  0  0
    2.1418   -8.6554    0.0000 C   0  0  0  0  0  0  0  0  0  0  0  0
    1.4273  -11.5429    0.0000 N   0  0  0  0  0  0  0  0  0  0  0  0
    1.4273  -12.3679    0.0000 O   0  0  0  0  0  0  0  0  0  0  0  0
    2.8563   -9.8929    0.0000 H   0  0  0  0  0  0  0  0  0  0  0  0
    0.7129  -10.3054    0.0000 H   0  0  0  0  0  0  0  0  0  0  0  0
   -0.0016   -9.0679    0.0000 H   0  0  0  0  0  0  0  0  0  0  0  0
   -0.0016   -7.4179    0.0000 H   0  0  0  0  0  0  0  0  0  0  0  0
    0.9740   -5.9036    0.0000 H   0  0  0  0  0  0  0  0  0  0  0  0
    0.6037   -6.5449    0.0000 H   0  0  0  0  0  0  0  0  0  0  0  0
    2.5951   -6.8696    0.0000 H   0  0  0  0  0  0  0  0  0  0  0  0
    2.9654   -6.2283    0.0000 H   0  0  0  0  0  0  0  0  0  0  0  0
    1.4273   -4.9429    0.0000 H   0  0  0  0  0  0  0  0  0  0  0  0
    1.4273   -4.1179    0.0000 H   0  0  0  0  0  0  0  0  0  0  0  0
    0.6037   -2.5158    0.0000 H   0  0  0  0  0  0  0  0  0  0  0  0
    0.9740   -3.1571    0.0000 H   0  0  0  0  0  0  0  0  0  0  0  0
   -0.0016    0.0071    0.0000 H   0  0  0  0  0  0  0  0  0  0  0  0
    2.8563    0.8321    0.0000 H   0  0  0  0  0  0  0  0  0  0  0  0
    4.2852    0.0071    0.0000 H   0  0  0  0  0  0  0  0  0  0  0  0
    4.2852   -1.6429    0.0000 H   0  0  0  0  0  0  0  0  0  0  0  0
    2.1418   -2.0554    0.0000 H   0  0  0  0  0  0  0  0  0  0  0  0
    3.5707   -2.0554    0.0000 H   0  0  0  0  0  0  0  0  0  0  0  0
    4.3957   -2.8804    0.0000 H   0  0  0  0  0  0  0  0  0  0  0  0
    2.8563   -7.4179    0.0000 H   0  0  0  0  0  0  0  0  0  0  0  0
    2.8563   -9.0679    0.0000 H   0  0  0  0  0  0  0  0  0  0  0  0
    0.7129  -11.1304    0.0000 H   0  0  0  0  0  0  0  0  0  0  0  0
    0.7129  -12.7804    0.0000 H   0  0  0  0  0  0  0  0  0  0  0  0
  1  2  2  0  0  0  0
  3  2  1  4  0  0  0
  3  4  2  0  0  0  0
  4  5  1  0  0  0  0
  5  6  4  0  0  0  0
  6  7  4  0  0  0  0
  7  8  4  0  0  0  0
  8  9  1  0  0  0  0
  9 10  1  0  0  0  0
 10 11  1  0  0  0  0
 11 12  1  0  0  0  0
 12 13  2  0  0  0  0
 12 14  1  0  0  0  0
 14 15  4  0  0  0  0
 15 16  4  0  0  0  0
 16 17  1  0  0  0  0
 17 18  1  0  0  0  0
 18 19  2  0  0  0  0
 19 20  1  0  0  0  0
 20 21  1  0  0  0  0
 21 22  2  0  0  0  0
 21 23  1  0  0  0  0
 23 24  4  0  0  0  0
 24 25  4  0  0  0  0
 25 26  4  0  0  0  0
 26 27  4  0  0  0  0
 27 28  4  0  0  0  0
 18 28  1  0  0  0  0
 23 28  4  0  0  0  0
 16 29  4  0  0  0  0
 29 30  4  0  0  0  0
 30 31  4  0  0  0  0
 14 31  4  0  0  0  0
 31 32  1  0  0  0  0
  8 33  4  0  0  0  0
 33 34  4  0  0  0  0
  5 34  4  0  0  0  0
  2 35  1  0  0  0  0
 35 36  1  0  0  0  0
  3 37  1  0  0  0  0
  4 38  1  0  0  0  0
  6 39  1  0  0  0  0
  7 40  1  0  0  0  0
  9 41  1  0  0  0  0
  9 42  1  0  0  0  0
 10 43  1  0  0  0  0
 10 44  1  0  0  0  0
 11 45  1  0  0  0  0
 15 46  1  0  0  0  0
 17 47  1  0  0  0  0
 17 48  1  0  0  0  0
 20 49  1  0  0  0  0
 24 50  1  0  0  0  0
 25 51  1  0  0  0  0
 26 52  1  0  0  0  0
 27 53  1  0  0  0  0
 29 54  1  0  0  0  0
 30 55  1  0  0  0  0
 33 56  1  0  0  0  0
 34 57  1  0  0  0  0
 35 58  1  0  0  0  0
 36 59  1  0  0  0  0
M  END
>  <Molecule ChEMBL ID>
CHEMBL4096060

>  <Compound Key>
P1

>  <Active>
1

>  <StandardizerResult>
Dearomatize (ID: Dearomatize)
Clear Stereo (ID: ClearStereo)
Wedge Clean (ID: WedgeClean)
Mesomerize (ID: Mesomerize)
Tautomerize (ID: Tautomerize)
Aromatize (ID: Aromatize)
Add Explicit Hydrogens (ID: AddExplicitH)
Neutralize (ID: Neutralize)
Clean 2D (ID: Clean2D)


$$$$

  Mrv1551102232211292D          

 44 46  0  0  0  0            999 V2000
   -0.0788   -4.1221    0.0000 O   0  0  0  0  0  0  0  0  0  0  0  0
   -0.0788   -3.2971    0.0000 C   0  0  0  0  0  0  0  0  0  0  0  0
    0.6357   -2.8846    0.0000 C   0  0  0  0  0  0  0  0  0  0  0  0
    0.6357   -2.0596    0.0000 C   0  0  0  0  0  0  0  0  0  0  0  0
    1.3501   -1.6471    0.0000 C   0  0  0  0  0  0  0  0  0  0  0  0
    1.3501   -0.8221    0.0000 C   0  0  0  0  0  0  0  0  0  0  0  0
    2.0646   -0.4096    0.0000 C   0  0  0  0  0  0  0  0  0  0  0  0
    2.7791   -0.8221    0.0000 C   0  0  0  0  0  0  0  0  0  0  0  0
    3.4935   -0.4096    0.0000 C   0  0  0  0  0  0  0  0  0  0  0  0
    4.2080   -0.8221    0.0000 C   0  0  0  0  0  0  0  0  0  0  0  0
    4.9225   -0.4096    0.0000 N   0  0  0  0  0  0  0  0  0  0  0  0
    5.6369   -0.8221    0.0000 C   0  0  0  0  0  0  0  0  0  0  0  0
    5.6369   -1.6471    0.0000 O   0  0  0  0  0  0  0  0  0  0  0  0
    6.3514   -0.4096    0.0000 C   0  0  0  0  0  0  0  0  0  0  0  0
    6.4377    0.4109    0.0000 C   0  0  0  0  0  0  0  0  0  0  0  0
    7.2446    0.5824    0.0000 N   0  0  0  0  0  0  0  0  0  0  0  0
    7.6571   -0.1321    0.0000 C   0  0  0  0  0  0  0  0  0  0  0  0
    8.4641   -0.3036    0.0000 N   0  0  0  0  0  0  0  0  0  0  0  0
    8.7190   -1.0882    0.0000 C   0  0  0  0  0  0  0  0  0  0  0  0
    8.1670   -1.7013    0.0000 C   0  0  0  0  0  0  0  0  0  0  0  0
    7.3600   -1.5298    0.0000 C   0  0  0  0  0  0  0  0  0  0  0  0
    7.1051   -0.7452    0.0000 C   0  0  0  0  0  0  0  0  0  0  0  0
    2.7791   -1.6471    0.0000 C   0  0  0  0  0  0  0  0  0  0  0  0
    2.0646   -2.0596    0.0000 C   0  0  0  0  0  0  0  0  0  0  0  0
   -0.7933   -2.8846    0.0000 N   0  0  0  0  0  0  0  0  0  0  0  0
   -1.5078   -3.2971    0.0000 O   0  0  0  0  0  0  0  0  0  0  0  0
    1.3501   -3.2971    0.0000 H   0  0  0  0  0  0  0  0  0  0  0  0
   -0.0788   -1.6471    0.0000 H   0  0  0  0  0  0  0  0  0  0  0  0
    0.6357   -0.4096    0.0000 H   0  0  0  0  0  0  0  0  0  0  0  0
    2.0646    0.4154    0.0000 H   0  0  0  0  0  0  0  0  0  0  0  0
    3.8638    0.3277    0.0000 H   0  0  0  0  0  0  0  0  0  0  0  0
    3.1233    0.3277    0.0000 H   0  0  0  0  0  0  0  0  0  0  0  0
    3.8377   -1.5593    0.0000 H   0  0  0  0  0  0  0  0  0  0  0  0
    4.5783   -1.5593    0.0000 H   0  0  0  0  0  0  0  0  0  0  0  0
    4.9225    0.4154    0.0000 H   0  0  0  0  0  0  0  0  0  0  0  0
    5.8246    0.9629    0.0000 H   0  0  0  0  0  0  0  0  0  0  0  0
    7.5802    1.3361    0.0000 H   0  0  0  0  0  0  0  0  0  0  0  0
    9.5260   -1.2597    0.0000 H   0  0  0  0  0  0  0  0  0  0  0  0
    8.4219   -2.4859    0.0000 H   0  0  0  0  0  0  0  0  0  0  0  0
    6.8080   -2.1429    0.0000 H   0  0  0  0  0  0  0  0  0  0  0  0
    3.4935   -2.0596    0.0000 H   0  0  0  0  0  0  0  0  0  0  0  0
    2.0646   -2.8846    0.0000 H   0  0  0  0  0  0  0  0  0  0  0  0
   -0.7933   -2.0596    0.0000 H   0  0  0  0  0  0  0  0  0  0  0  0
   -2.2222   -2.8846    0.0000 H   0  0  0  0  0  0  0  0  0  0  0  0
  1  2  2  0  0  0  0
  3  2  1  4  0  0  0
  3  4  2  0  0  0  0
  4  5  1  0  0  0  0
  5  6  4  0  0  0  0
  6  7  4  0  0  0  0
  7  8  4  0  0  0  0
  8  9  1  0  0  0  0
  9 10  1  0  0  0  0
 10 11  1  0  0  0  0
 11 12  1  0  0  0  0
 12 13  2  0  0  0  0
 12 14  1  0  0  0  0
 14 15  4  0  0  0  0
 15 16  4  0  0  0  0
 16 17  4  0  0  0  0
 17 18  4  0  0  0  0
 18 19  4  0  0  0  0
 19 20  4  0  0  0  0
 20 21  4  0  0  0  0
 21 22  4  0  0  0  0
 14 22  4  0  0  0  0
 17 22  4  0  0  0  0
  8 23  4  0  0  0  0
 23 24  4  0  0  0  0
  5 24  4  0  0  0  0
  2 25  1  0  0  0  0
 25 26  1  0  0  0  0
  3 27  1  0  0  0  0
  4 28  1  0  0  0  0
  6 29  1  0  0  0  0
  7 30  1  0  0  0  0
  9 31  1  0  0  0  0
  9 32  1  0  0  0  0
 10 33  1  0  0  0  0
 10 34  1  0  0  0  0
 11 35  1  0  0  0  0
 15 36  1  0  0  0  0
 16 37  1  0  0  0  0
 19 38  1  0  0  0  0
 20 39  1  0  0  0  0
 21 40  1  0  0  0  0
 23 41  1  0  0  0  0
 24 42  1  0  0  0  0
 25 43  1  0  0  0  0
 26 44  1  0  0  0  0
M  END
>  <Molecule ChEMBL ID>
CHEMBL4093350

>  <Compound Key>
15h

>  <Active>
1

>  <StandardizerResult>
Dearomatize (ID: Dearomatize)
Clear Stereo (ID: ClearStereo)
Wedge Clean (ID: WedgeClean)
Mesomerize (ID: Mesomerize)
Tautomerize (ID: Tautomerize)
Aromatize (ID: Aromatize)
Add Explicit Hydrogens (ID: AddExplicitH)
Neutralize (ID: Neutralize)
Clean 2D (ID: Clean2D)


$$$$

  Mrv1551102232211292D          

 55 57  0  0  0  0            999 V2000
    4.5196   -4.7792    0.0000 O   0  0  0  0  0  0  0  0  0  0  0  0
    4.5196   -5.6042    0.0000 C   0  0  0  0  0  0  0  0  0  0  0  0
    3.8051   -6.0167    0.0000 C   0  0  0  0  0  0  0  0  0  0  0  0
    3.0907   -5.6042    0.0000 C   0  0  0  0  0  0  0  0  0  0  0  0
    2.3762   -6.0167    0.0000 C   0  0  0  0  0  0  0  0  0  0  0  0
    1.6617   -5.6042    0.0000 C   0  0  0  0  0  0  0  0  0  0  0  0
    0.9473   -6.0167    0.0000 C   0  0  0  0  0  0  0  0  0  0  0  0
    0.2328   -5.6042    0.0000 C   0  0  0  0  0  0  0  0  0  0  0  0
   -0.4817   -6.0167    0.0000 C   0  0  0  0  0  0  0  0  0  0  0  0
   -0.4817   -6.8417    0.0000 O   0  0  0  0  0  0  0  0  0  0  0  0
   -1.1962   -5.6042    0.0000 N   0  0  0  0  0  0  0  0  0  0  0  0
   -1.9106   -6.0167    0.0000 C   0  0  0  0  0  0  0  0  0  0  0  0
   -1.9106   -6.8417    0.0000 C   0  0  0  0  0  0  0  0  0  0  0  0
   -2.6251   -7.2542    0.0000 C   0  0  0  0  0  0  0  0  0  0  0  0
   -3.3396   -6.8417    0.0000 C   0  0  0  0  0  0  0  0  0  0  0  0
   -3.3396   -6.0167    0.0000 C   0  0  0  0  0  0  0  0  0  0  0  0
   -4.0540   -5.6042    0.0000 C   0  0  0  0  0  0  0  0  0  0  0  0
   -4.8077   -5.9398    0.0000 C   0  0  0  0  0  0  0  0  0  0  0  0
   -5.3597   -5.3267    0.0000 N   0  0  0  0  0  0  0  0  0  0  0  0
   -6.1802   -5.4129    0.0000 C   0  0  0  0  0  0  0  0  0  0  0  0
   -6.5158   -6.1666    0.0000 C   0  0  0  0  0  0  0  0  0  0  0  0
   -7.3363   -6.2528    0.0000 C   0  0  0  0  0  0  0  0  0  0  0  0
   -7.8212   -5.5854    0.0000 C   0  0  0  0  0  0  0  0  0  0  0  0
   -8.6417   -5.6716    0.0000 F   0  0  0  0  0  0  0  0  0  0  0  0
   -7.4856   -4.8317    0.0000 C   0  0  0  0  0  0  0  0  0  0  0  0
   -6.6651   -4.7455    0.0000 C   0  0  0  0  0  0  0  0  0  0  0  0
   -4.9472   -4.6122    0.0000 N   0  0  0  0  0  0  0  0  0  0  0  0
   -4.1403   -4.7837    0.0000 N   0  0  0  0  0  0  0  0  0  0  0  0
   -2.6251   -5.6042    0.0000 C   0  0  0  0  0  0  0  0  0  0  0  0
    5.2341   -6.0167    0.0000 N   0  0  0  0  0  0  0  0  0  0  0  0
    5.9486   -5.6042    0.0000 O   0  0  0  0  0  0  0  0  0  0  0  0
    3.4349   -6.7540    0.0000 H   0  0  0  0  0  0  0  0  0  0  0  0
    4.1754   -6.7540    0.0000 H   0  0  0  0  0  0  0  0  0  0  0  0
    3.4609   -4.8670    0.0000 H   0  0  0  0  0  0  0  0  0  0  0  0
    2.7204   -4.8670    0.0000 H   0  0  0  0  0  0  0  0  0  0  0  0
    2.0059   -6.7540    0.0000 H   0  0  0  0  0  0  0  0  0  0  0  0
    2.7465   -6.7540    0.0000 H   0  0  0  0  0  0  0  0  0  0  0  0
    2.0320   -4.8670    0.0000 H   0  0  0  0  0  0  0  0  0  0  0  0
    1.2915   -4.8670    0.0000 H   0  0  0  0  0  0  0  0  0  0  0  0
    0.5770   -6.7540    0.0000 H   0  0  0  0  0  0  0  0  0  0  0  0
    1.3175   -6.7540    0.0000 H   0  0  0  0  0  0  0  0  0  0  0  0
    0.6030   -4.8670    0.0000 H   0  0  0  0  0  0  0  0  0  0  0  0
   -0.1375   -4.8670    0.0000 H   0  0  0  0  0  0  0  0  0  0  0  0
   -1.1962   -4.7792    0.0000 H   0  0  0  0  0  0  0  0  0  0  0  0
   -1.1962   -7.2542    0.0000 H   0  0  0  0  0  0  0  0  0  0  0  0
   -2.6251   -8.0792    0.0000 H   0  0  0  0  0  0  0  0  0  0  0  0
   -4.0540   -7.2542    0.0000 H   0  0  0  0  0  0  0  0  0  0  0  0
   -4.9792   -6.7467    0.0000 H   0  0  0  0  0  0  0  0  0  0  0  0
   -6.0309   -6.8340    0.0000 H   0  0  0  0  0  0  0  0  0  0  0  0
   -7.6718   -7.0065    0.0000 H   0  0  0  0  0  0  0  0  0  0  0  0
   -7.9706   -4.1643    0.0000 H   0  0  0  0  0  0  0  0  0  0  0  0
   -6.3296   -3.9918    0.0000 H   0  0  0  0  0  0  0  0  0  0  0  0
   -2.6251   -4.7792    0.0000 H   0  0  0  0  0  0  0  0  0  0  0  0
    5.2341   -6.8417    0.0000 H   0  0  0  0  0  0  0  0  0  0  0  0
    6.6630   -6.0167    0.0000 H   0  0  0  0  0  0  0  0  0  0  0  0
  1  2  2  0  0  0  0
  2  3  1  0  0  0  0
  3  4  1  0  0  0  0
  4  5  1  0  0  0  0
  5  6  1  0  0  0  0
  6  7  1  0  0  0  0
  7  8  1  0  0  0  0
  8  9  1  0  0  0  0
  9 10  2  0  0  0  0
  9 11  1  0  0  0  0
 11 12  1  0  0  0  0
 12 13  4  0  0  0  0
 13 14  4  0  0  0  0
 14 15  4  0  0  0  0
 15 16  4  0  0  0  0
 16 17  1  0  0  0  0
 17 18  4  0  0  0  0
 18 19  4  0  0  0  0
 19 20  1  0  0  0  0
 20 21  4  0  0  0  0
 21 22  4  0  0  0  0
 22 23  4  0  0  0  0
 23 24  1  0  0  0  0
 23 25  4  0  0  0  0
 25 26  4  0  0  0  0
 20 26  4  0  0  0  0
 19 27  4  0  0  0  0
 27 28  4  0  0  0  0
 17 28  4  0  0  0  0
 16 29  4  0  0  0  0
 12 29  4  0  0  0  0
  2 30  1  0  0  0  0
 30 31  1  0  0  0  0
  3 32  1  0  0  0  0
  3 33  1  0  0  0  0
  4 34  1  0  0  0  0
  4 35  1  0  0  0  0
  5 36  1  0  0  0  0
  5 37  1  0  0  0  0
  6 38  1  0  0  0  0
  6 39  1  0  0  0  0
  7 40  1  0  0  0  0
  7 41  1  0  0  0  0
  8 42  1  0  0  0  0
  8 43  1  0  0  0  0
 11 44  1  0  0  0  0
 13 45  1  0  0  0  0
 14 46  1  0  0  0  0
 15 47  1  0  0  0  0
 18 48  1  0  0  0  0
 21 49  1  0  0  0  0
 22 50  1  0  0  0  0
 25 51  1  0  0  0  0
 26 52  1  0  0  0  0
 29 53  1  0  0  0  0
 30 54  1  0  0  0  0
 31 55  1  0  0  0  0
M  END
>  <Molecule ChEMBL ID>
CHEMBL1091474

>  <Compound Key>
4b

>  <Active>
1

>  <StandardizerResult>
Dearomatize (ID: Dearomatize)
Clear Stereo (ID: ClearStereo)
Wedge Clean (ID: WedgeClean)
Mesomerize (ID: Mesomerize)
Tautomerize (ID: Tautomerize)
Aromatize (ID: Aromatize)
Add Explicit Hydrogens (ID: AddExplicitH)
Neutralize (ID: Neutralize)
Clean 2D (ID: Clean2D)


$$$$

  Mrv1551102232211292D          

 57 60  0  0  0  0            999 V2000
    7.1741   -2.8256    0.0000 O   0  0  0  0  0  0  0  0  0  0  0  0
    7.1741   -3.6506    0.0000 C   0  0  0  0  0  0  0  0  0  0  0  0
    6.4596   -4.0631    0.0000 C   0  0  0  0  0  0  0  0  0  0  0  0
    5.7451   -3.6506    0.0000 C   0  0  0  0  0  0  0  0  0  0  0  0
    5.0307   -4.0631    0.0000 C   0  0  0  0  0  0  0  0  0  0  0  0
    4.3162   -3.6506    0.0000 C   0  0  0  0  0  0  0  0  0  0  0  0
    3.6017   -4.0631    0.0000 C   0  0  0  0  0  0  0  0  0  0  0  0
    2.8873   -3.6506    0.0000 C   0  0  0  0  0  0  0  0  0  0  0  0
    2.1728   -4.0631    0.0000 N   0  0  0  0  0  0  0  0  0  0  0  0
    2.0866   -4.8836    0.0000 C   0  0  0  0  0  0  0  0  0  0  0  0
    1.2796   -5.0551    0.0000 C   0  0  0  0  0  0  0  0  0  0  0  0
    0.9440   -5.8088    0.0000 C   0  0  0  0  0  0  0  0  0  0  0  0
    1.4289   -6.4762    0.0000 C   0  0  0  0  0  0  0  0  0  0  0  0
    1.0934   -7.2299    0.0000 C   0  0  0  0  0  0  0  0  0  0  0  0
    0.2729   -7.3161    0.0000 C   0  0  0  0  0  0  0  0  0  0  0  0
   -0.0626   -8.0698    0.0000 N   0  0  0  0  0  0  0  0  0  0  0  0
   -0.8831   -8.1561    0.0000 C   0  0  0  0  0  0  0  0  0  0  0  0
   -1.3681   -7.4886    0.0000 N   0  0  0  0  0  0  0  0  0  0  0  0
   -1.0325   -6.7349    0.0000 C   0  0  0  0  0  0  0  0  0  0  0  0
   -1.5174   -6.0675    0.0000 N   0  0  0  0  0  0  0  0  0  0  0  0
   -2.3379   -6.1537    0.0000 C   0  0  0  0  0  0  0  0  0  0  0  0
   -2.6735   -6.9074    0.0000 C   0  0  0  0  0  0  0  0  0  0  0  0
   -3.4939   -6.9936    0.0000 C   0  0  0  0  0  0  0  0  0  0  0  0
   -3.9789   -6.3262    0.0000 C   0  0  0  0  0  0  0  0  0  0  0  0
   -4.7993   -6.4124    0.0000 F   0  0  0  0  0  0  0  0  0  0  0  0
   -3.6433   -5.5725    0.0000 C   0  0  0  0  0  0  0  0  0  0  0  0
   -4.1282   -4.9051    0.0000 Cl  0  0  0  0  0  0  0  0  0  0  0  0
   -2.8228   -5.4863    0.0000 C   0  0  0  0  0  0  0  0  0  0  0  0
   -0.2120   -6.6487    0.0000 C   0  0  0  0  0  0  0  0  0  0  0  0
    0.1235   -5.8950    0.0000 C   0  0  0  0  0  0  0  0  0  0  0  0
    0.8671   -4.3406    0.0000 N   0  0  0  0  0  0  0  0  0  0  0  0
    1.4191   -3.7276    0.0000 N   0  0  0  0  0  0  0  0  0  0  0  0
    7.8886   -4.0631    0.0000 N   0  0  0  0  0  0  0  0  0  0  0  0
    8.6030   -3.6506    0.0000 O   0  0  0  0  0  0  0  0  0  0  0  0
    6.0894   -4.8004    0.0000 H   0  0  0  0  0  0  0  0  0  0  0  0
    6.8299   -4.8004    0.0000 H   0  0  0  0  0  0  0  0  0  0  0  0
    6.1154   -2.9134    0.0000 H   0  0  0  0  0  0  0  0  0  0  0  0
    5.3749   -2.9134    0.0000 H   0  0  0  0  0  0  0  0  0  0  0  0
    4.6604   -4.8004    0.0000 H   0  0  0  0  0  0  0  0  0  0  0  0
    5.4009   -4.8004    0.0000 H   0  0  0  0  0  0  0  0  0  0  0  0
    4.6865   -2.9134    0.0000 H   0  0  0  0  0  0  0  0  0  0  0  0
    3.9459   -2.9134    0.0000 H   0  0  0  0  0  0  0  0  0  0  0  0
    3.2315   -4.8004    0.0000 H   0  0  0  0  0  0  0  0  0  0  0  0
    3.9720   -4.8004    0.0000 H   0  0  0  0  0  0  0  0  0  0  0  0
    3.2575   -2.9134    0.0000 H   0  0  0  0  0  0  0  0  0  0  0  0
    2.5170   -2.9134    0.0000 H   0  0  0  0  0  0  0  0  0  0  0  0
    2.6996   -5.4356    0.0000 H   0  0  0  0  0  0  0  0  0  0  0  0
    2.2494   -6.3900    0.0000 H   0  0  0  0  0  0  0  0  0  0  0  0
    1.5783   -7.8973    0.0000 H   0  0  0  0  0  0  0  0  0  0  0  0
   -1.2187   -8.9097    0.0000 H   0  0  0  0  0  0  0  0  0  0  0  0
   -1.1819   -5.3138    0.0000 H   0  0  0  0  0  0  0  0  0  0  0  0
   -2.1885   -7.5748    0.0000 H   0  0  0  0  0  0  0  0  0  0  0  0
   -3.8295   -7.7473    0.0000 H   0  0  0  0  0  0  0  0  0  0  0  0
   -2.4873   -4.7326    0.0000 H   0  0  0  0  0  0  0  0  0  0  0  0
   -0.3614   -5.2276    0.0000 H   0  0  0  0  0  0  0  0  0  0  0  0
    7.8886   -4.8881    0.0000 H   0  0  0  0  0  0  0  0  0  0  0  0
    9.3175   -4.0631    0.0000 H   0  0  0  0  0  0  0  0  0  0  0  0
  1  2  2  0  0  0  0
  2  3  1  0  0  0  0
  3  4  1  0  0  0  0
  4  5  1  0  0  0  0
  5  6  1  0  0  0  0
  6  7  1  0  0  0  0
  7  8  1  0  0  0  0
  8  9  1  0  0  0  0
  9 10  4  0  0  0  0
 10 11  4  0  0  0  0
 11 12  1  0  0  0  0
 12 13  4  0  0  0  0
 13 14  4  0  0  0  0
 14 15  4  0  0  0  0
 15 16  4  0  0  0  0
 16 17  4  0  0  0  0
 17 18  4  0  0  0  0
 18 19  4  0  0  0  0
 19 20  1  0  0  0  0
 20 21  1  0  0  0  0
 21 22  4  0  0  0  0
 22 23  4  0  0  0  0
 23 24  4  0  0  0  0
 24 25  1  0  0  0  0
 24 26  4  0  0  0  0
 26 27  1  0  0  0  0
 26 28  4  0  0  0  0
 21 28  4  0  0  0  0
 19 29  4  0  0  0  0
 15 29  4  0  0  0  0
 29 30  4  0  0  0  0
 12 30  4  0  0  0  0
 11 31  4  0  0  0  0
 31 32  4  0  0  0  0
  9 32  4  0  0  0  0
  2 33  1  0  0  0  0
 33 34  1  0  0  0  0
  3 35  1  0  0  0  0
  3 36  1  0  0  0  0
  4 37  1  0  0  0  0
  4 38  1  0  0  0  0
  5 39  1  0  0  0  0
  5 40  1  0  0  0  0
  6 41  1  0  0  0  0
  6 42  1  0  0  0  0
  7 43  1  0  0  0  0
  7 44  1  0  0  0  0
  8 45  1  0  0  0  0
  8 46  1  0  0  0  0
 10 47  1  0  0  0  0
 13 48  1  0  0  0  0
 14 49  1  0  0  0  0
 17 50  1  0  0  0  0
 20 51  1  0  0  0  0
 22 52  1  0  0  0  0
 23 53  1  0  0  0  0
 28 54  1  0  0  0  0
 30 55  1  0  0  0  0
 33 56  1  0  0  0  0
 34 57  1  0  0  0  0
M  END
>  <Molecule ChEMBL ID>
CHEMBL3957055

>  <Compound Key>
9b

>  <Active>
1

>  <StandardizerResult>
Dearomatize (ID: Dearomatize)
Clear Stereo (ID: ClearStereo)
Wedge Clean (ID: WedgeClean)
Mesomerize (ID: Mesomerize)
Tautomerize (ID: Tautomerize)
Aromatize (ID: Aromatize)
Add Explicit Hydrogens (ID: AddExplicitH)
Neutralize (ID: Neutralize)
Clean 2D (ID: Clean2D)


$$$$

  Mrv1551102232211292D          

 43 45  0  0  0  0            999 V2000
   -5.7041   -4.1156    0.0000 C   0  0  0  0  0  0  0  0  0  0  0  0
   -5.7041   -4.9406    0.0000 C   0  0  0  0  0  0  0  0  0  0  0  0
   -4.9896   -5.3531    0.0000 N   0  0  0  0  0  0  0  0  0  0  0  0
   -4.9896   -6.1781    0.0000 C   0  0  0  0  0  0  0  0  0  0  0  0
   -4.2752   -6.5906    0.0000 N   0  0  0  0  0  0  0  0  0  0  0  0
   -4.2752   -7.4156    0.0000 C   0  0  0  0  0  0  0  0  0  0  0  0
   -3.5607   -6.1781    0.0000 C   0  0  0  0  0  0  0  0  0  0  0  0
   -3.5607   -5.3531    0.0000 C   0  0  0  0  0  0  0  0  0  0  0  0
   -2.8462   -4.9406    0.0000 C   0  0  0  0  0  0  0  0  0  0  0  0
   -2.1318   -5.3531    0.0000 C   0  0  0  0  0  0  0  0  0  0  0  0
   -1.4173   -4.9406    0.0000 O   0  0  0  0  0  0  0  0  0  0  0  0
   -0.7028   -5.3531    0.0000 C   0  0  0  0  0  0  0  0  0  0  0  0
    0.0116   -4.9406    0.0000 C   0  0  0  0  0  0  0  0  0  0  0  0
    0.0116   -4.1156    0.0000 O   0  0  0  0  0  0  0  0  0  0  0  0
    0.7261   -5.3531    0.0000 N   0  0  0  0  0  0  0  0  0  0  0  0
    1.4406   -4.9406    0.0000 O   0  0  0  0  0  0  0  0  0  0  0  0
   -2.1318   -6.1781    0.0000 C   0  0  0  0  0  0  0  0  0  0  0  0
   -2.8462   -6.5906    0.0000 C   0  0  0  0  0  0  0  0  0  0  0  0
   -5.7041   -6.5906    0.0000 C   0  0  0  0  0  0  0  0  0  0  0  0
   -5.7041   -7.4156    0.0000 C   0  0  0  0  0  0  0  0  0  0  0  0
   -6.4186   -7.8281    0.0000 C   0  0  0  0  0  0  0  0  0  0  0  0
   -7.1331   -7.4156    0.0000 C   0  0  0  0  0  0  0  0  0  0  0  0
   -7.1331   -6.5906    0.0000 C   0  0  0  0  0  0  0  0  0  0  0  0
   -6.4186   -6.1781    0.0000 C   0  0  0  0  0  0  0  0  0  0  0  0
   -6.4186   -5.3531    0.0000 N   0  0  0  0  0  0  0  0  0  0  0  0
   -4.8791   -4.1156    0.0000 H   0  0  0  0  0  0  0  0  0  0  0  0
   -5.7041   -3.2906    0.0000 H   0  0  0  0  0  0  0  0  0  0  0  0
   -6.5291   -4.1156    0.0000 H   0  0  0  0  0  0  0  0  0  0  0  0
   -5.1002   -7.4156    0.0000 H   0  0  0  0  0  0  0  0  0  0  0  0
   -4.2752   -8.2406    0.0000 H   0  0  0  0  0  0  0  0  0  0  0  0
   -3.4502   -7.4156    0.0000 H   0  0  0  0  0  0  0  0  0  0  0  0
   -4.2752   -4.9406    0.0000 H   0  0  0  0  0  0  0  0  0  0  0  0
   -2.8462   -4.1156    0.0000 H   0  0  0  0  0  0  0  0  0  0  0  0
   -1.0731   -6.0904    0.0000 H   0  0  0  0  0  0  0  0  0  0  0  0
   -0.3326   -6.0904    0.0000 H   0  0  0  0  0  0  0  0  0  0  0  0
    0.7261   -6.1781    0.0000 H   0  0  0  0  0  0  0  0  0  0  0  0
    2.1551   -5.3531    0.0000 H   0  0  0  0  0  0  0  0  0  0  0  0
   -1.4173   -6.5906    0.0000 H   0  0  0  0  0  0  0  0  0  0  0  0
   -2.8462   -7.4156    0.0000 H   0  0  0  0  0  0  0  0  0  0  0  0
   -5.4906   -8.2125    0.0000 H   0  0  0  0  0  0  0  0  0  0  0  0
   -6.4186   -8.6531    0.0000 H   0  0  0  0  0  0  0  0  0  0  0  0
   -7.8475   -7.8281    0.0000 H   0  0  0  0  0  0  0  0  0  0  0  0
   -7.8475   -6.1781    0.0000 H   0  0  0  0  0  0  0  0  0  0  0  0
  1  2  1  0  0  0  0
  2  3  4  0  0  0  0
  3  4  4  0  0  0  0
  4  5  1  0  0  0  0
  5  6  1  0  0  0  0
  5  7  1  0  0  0  0
  7  8  4  0  0  0  0
  8  9  4  0  0  0  0
  9 10  4  0  0  0  0
 10 11  1  0  0  0  0
 11 12  1  0  0  0  0
 12 13  1  0  0  0  0
 13 14  2  0  0  0  0
 13 15  1  0  0  0  0
 15 16  1  0  0  0  0
 10 17  4  0  0  0  0
 17 18  4  0  0  0  0
  7 18  4  0  0  0  0
  4 19  4  0  0  0  0
 19 20  4  0  0  0  0
 20 21  4  0  0  0  0
 21 22  4  0  0  0  0
 22 23  4  0  0  0  0
 23 24  4  0  0  0  0
 19 24  4  0  0  0  0
 24 25  4  0  0  0  0
  2 25  4  0  0  0  0
  1 26  1  0  0  0  0
  1 27  1  0  0  0  0
  1 28  1  0  0  0  0
  6 29  1  0  0  0  0
  6 30  1  0  0  0  0
  6 31  1  0  0  0  0
  8 32  1  0  0  0  0
  9 33  1  0  0  0  0
 12 34  1  0  0  0  0
 12 35  1  0  0  0  0
 15 36  1  0  0  0  0
 16 37  1  0  0  0  0
 17 38  1  0  0  0  0
 18 39  1  0  0  0  0
 20 40  1  0  0  0  0
 21 41  1  0  0  0  0
 22 42  1  0  0  0  0
 23 43  1  0  0  0  0
M  END
>  <Molecule ChEMBL ID>
CHEMBL3775521

>  <Compound Key>
7a

>  <Active>
1

>  <StandardizerResult>
Dearomatize (ID: Dearomatize)
Clear Stereo (ID: ClearStereo)
Wedge Clean (ID: WedgeClean)
Mesomerize (ID: Mesomerize)
Tautomerize (ID: Tautomerize)
Aromatize (ID: Aromatize)
Add Explicit Hydrogens (ID: AddExplicitH)
Neutralize (ID: Neutralize)
Clean 2D (ID: Clean2D)


$$$$

  Mrv1551102232211292D          

 39 39  0  0  0  0            999 V2000
    5.0013   -0.4125    0.0000 O   0  0  0  0  0  0  0  0  0  0  0  0
    5.0013   -1.2375    0.0000 C   0  0  0  0  0  0  0  0  0  0  0  0
    4.2868   -1.6500    0.0000 C   0  0  0  0  0  0  0  0  0  0  0  0
    3.5724   -1.2375    0.0000 C   0  0  0  0  0  0  0  0  0  0  0  0
    2.8579   -1.6500    0.0000 C   0  0  0  0  0  0  0  0  0  0  0  0
    2.1434   -1.2375    0.0000 C   0  0  0  0  0  0  0  0  0  0  0  0
    1.4289   -1.6500    0.0000 C   0  0  0  0  0  0  0  0  0  0  0  0
    0.7145   -1.2375    0.0000 C   0  0  0  0  0  0  0  0  0  0  0  0
    0.0000   -1.6500    0.0000 C   0  0  0  0  0  0  0  0  0  0  0  0
    0.0000   -2.4750    0.0000 O   0  0  0  0  0  0  0  0  0  0  0  0
   -0.7145   -1.2375    0.0000 N   0  0  0  0  0  0  0  0  0  0  0  0
   -1.4289   -1.6500    0.0000 C   0  0  0  0  0  0  0  0  0  0  0  0
   -1.4289   -2.4750    0.0000 C   0  0  0  0  0  0  0  0  0  0  0  0
   -2.1434   -2.8875    0.0000 C   0  0  0  0  0  0  0  0  0  0  0  0
   -2.8579   -2.4750    0.0000 C   0  0  0  0  0  0  0  0  0  0  0  0
   -2.8579   -1.6500    0.0000 C   0  0  0  0  0  0  0  0  0  0  0  0
   -2.1434   -1.2375    0.0000 C   0  0  0  0  0  0  0  0  0  0  0  0
    5.7158   -1.6500    0.0000 N   0  0  0  0  0  0  0  0  0  0  0  0
    6.4302   -1.2375    0.0000 O   0  0  0  0  0  0  0  0  0  0  0  0
    3.9166   -2.3872    0.0000 H   0  0  0  0  0  0  0  0  0  0  0  0
    4.6571   -2.3872    0.0000 H   0  0  0  0  0  0  0  0  0  0  0  0
    3.9426   -0.5003    0.0000 H   0  0  0  0  0  0  0  0  0  0  0  0
    3.2021   -0.5003    0.0000 H   0  0  0  0  0  0  0  0  0  0  0  0
    2.4876   -2.3872    0.0000 H   0  0  0  0  0  0  0  0  0  0  0  0
    3.2281   -2.3872    0.0000 H   0  0  0  0  0  0  0  0  0  0  0  0
    2.5137   -0.5003    0.0000 H   0  0  0  0  0  0  0  0  0  0  0  0
    1.7732   -0.5003    0.0000 H   0  0  0  0  0  0  0  0  0  0  0  0
    1.0587   -2.3872    0.0000 H   0  0  0  0  0  0  0  0  0  0  0  0
    1.7992   -2.3872    0.0000 H   0  0  0  0  0  0  0  0  0  0  0  0
    1.0847   -0.5003    0.0000 H   0  0  0  0  0  0  0  0  0  0  0  0
    0.3442   -0.5003    0.0000 H   0  0  0  0  0  0  0  0  0  0  0  0
   -0.7145   -0.4125    0.0000 H   0  0  0  0  0  0  0  0  0  0  0  0
   -0.7145   -2.8875    0.0000 H   0  0  0  0  0  0  0  0  0  0  0  0
   -2.1434   -3.7125    0.0000 H   0  0  0  0  0  0  0  0  0  0  0  0
   -3.5724   -2.8875    0.0000 H   0  0  0  0  0  0  0  0  0  0  0  0
   -3.5724   -1.2375    0.0000 H   0  0  0  0  0  0  0  0  0  0  0  0
   -2.1434   -0.4125    0.0000 H   0  0  0  0  0  0  0  0  0  0  0  0
    5.7158   -2.4750    0.0000 H   0  0  0  0  0  0  0  0  0  0  0  0
    7.1447   -1.6500    0.0000 H   0  0  0  0  0  0  0  0  0  0  0  0
  1  2  2  0  0  0  0
  2  3  1  0  0  0  0
  3  4  1  0  0  0  0
  4  5  1  0  0  0  0
  5  6  1  0  0  0  0
  6  7  1  0  0  0  0
  7  8  1  0  0  0  0
  8  9  1  0  0  0  0
  9 10  2  0  0  0  0
  9 11  1  0  0  0  0
 11 12  1  0  0  0  0
 12 13  4  0  0  0  0
 13 14  4  0  0  0  0
 14 15  4  0  0  0  0
 15 16  4  0  0  0  0
 16 17  4  0  0  0  0
 12 17  4  0  0  0  0
  2 18  1  0  0  0  0
 18 19  1  0  0  0  0
  3 20  1  0  0  0  0
  3 21  1  0  0  0  0
  4 22  1  0  0  0  0
  4 23  1  0  0  0  0
  5 24  1  0  0  0  0
  5 25  1  0  0  0  0
  6 26  1  0  0  0  0
  6 27  1  0  0  0  0
  7 28  1  0  0  0  0
  7 29  1  0  0  0  0
  8 30  1  0  0  0  0
  8 31  1  0  0  0  0
 11 32  1  0  0  0  0
 13 33  1  0  0  0  0
 14 34  1  0  0  0  0
 15 35  1  0  0  0  0
 16 36  1  0  0  0  0
 17 37  1  0  0  0  0
 18 38  1  0  0  0  0
 19 39  1  0  0  0  0
M  END
>  <Molecule ChEMBL ID>
CHEMBL98

>  <Compound Key>
1, SAHA, Vorinostat

>  <Active>
1

>  <StandardizerResult>
Dearomatize (ID: Dearomatize)
Clear Stereo (ID: ClearStereo)
Wedge Clean (ID: WedgeClean)
Mesomerize (ID: Mesomerize)
Tautomerize (ID: Tautomerize)
Aromatize (ID: Aromatize)
Add Explicit Hydrogens (ID: AddExplicitH)
Neutralize (ID: Neutralize)
Clean 2D (ID: Clean2D)


$$$$

  Mrv1551102232211292D          

 54 57  0  0  0  0            999 V2000
    7.6590   -2.1579    0.0000 O   0  0  0  0  0  0  0  0  0  0  0  0
    7.6590   -2.9829    0.0000 C   0  0  0  0  0  0  0  0  0  0  0  0
    6.9445   -3.3954    0.0000 C   0  0  0  0  0  0  0  0  0  0  0  0
    6.2301   -2.9829    0.0000 C   0  0  0  0  0  0  0  0  0  0  0  0
    5.5156   -3.3954    0.0000 C   0  0  0  0  0  0  0  0  0  0  0  0
    4.8011   -2.9829    0.0000 C   0  0  0  0  0  0  0  0  0  0  0  0
    4.0866   -3.3954    0.0000 C   0  0  0  0  0  0  0  0  0  0  0  0
    3.3722   -2.9829    0.0000 N   0  0  0  0  0  0  0  0  0  0  0  0
    2.6185   -3.3184    0.0000 C   0  0  0  0  0  0  0  0  0  0  0  0
    2.0665   -2.7053    0.0000 C   0  0  0  0  0  0  0  0  0  0  0  0
    1.2460   -2.7916    0.0000 C   0  0  0  0  0  0  0  0  0  0  0  0
    0.9104   -3.5452    0.0000 C   0  0  0  0  0  0  0  0  0  0  0  0
    0.0899   -3.6315    0.0000 C   0  0  0  0  0  0  0  0  0  0  0  0
   -0.3950   -2.9640    0.0000 C   0  0  0  0  0  0  0  0  0  0  0  0
   -1.2155   -3.0503    0.0000 N   0  0  0  0  0  0  0  0  0  0  0  0
   -1.7004   -2.3828    0.0000 C   0  0  0  0  0  0  0  0  0  0  0  0
   -1.3648   -1.6292    0.0000 N   0  0  0  0  0  0  0  0  0  0  0  0
   -0.5443   -1.5429    0.0000 C   0  0  0  0  0  0  0  0  0  0  0  0
   -0.2088   -0.7892    0.0000 N   0  0  0  0  0  0  0  0  0  0  0  0
   -0.6937   -0.1218    0.0000 C   0  0  0  0  0  0  0  0  0  0  0  0
   -1.5142   -0.2080    0.0000 C   0  0  0  0  0  0  0  0  0  0  0  0
   -1.9991    0.4594    0.0000 C   0  0  0  0  0  0  0  0  0  0  0  0
   -1.6636    1.2131    0.0000 C   0  0  0  0  0  0  0  0  0  0  0  0
   -2.1485    1.8805    0.0000 F   0  0  0  0  0  0  0  0  0  0  0  0
   -0.8431    1.2993    0.0000 C   0  0  0  0  0  0  0  0  0  0  0  0
   -0.5075    2.0530    0.0000 Cl  0  0  0  0  0  0  0  0  0  0  0  0
   -0.3581    0.6319    0.0000 C   0  0  0  0  0  0  0  0  0  0  0  0
   -0.0594   -2.2104    0.0000 C   0  0  0  0  0  0  0  0  0  0  0  0
    0.7611   -2.1241    0.0000 C   0  0  0  0  0  0  0  0  0  0  0  0
    2.4790   -1.9909    0.0000 N   0  0  0  0  0  0  0  0  0  0  0  0
    3.2859   -2.1624    0.0000 N   0  0  0  0  0  0  0  0  0  0  0  0
    8.3735   -3.3954    0.0000 N   0  0  0  0  0  0  0  0  0  0  0  0
    9.0879   -2.9829    0.0000 O   0  0  0  0  0  0  0  0  0  0  0  0
    6.5743   -4.1326    0.0000 H   0  0  0  0  0  0  0  0  0  0  0  0
    7.3148   -4.1326    0.0000 H   0  0  0  0  0  0  0  0  0  0  0  0
    6.6003   -2.2456    0.0000 H   0  0  0  0  0  0  0  0  0  0  0  0
    5.8598   -2.2456    0.0000 H   0  0  0  0  0  0  0  0  0  0  0  0
    5.1453   -4.1326    0.0000 H   0  0  0  0  0  0  0  0  0  0  0  0
    5.8858   -4.1326    0.0000 H   0  0  0  0  0  0  0  0  0  0  0  0
    5.1714   -2.2456    0.0000 H   0  0  0  0  0  0  0  0  0  0  0  0
    4.4309   -2.2456    0.0000 H   0  0  0  0  0  0  0  0  0  0  0  0
    3.7164   -4.1326    0.0000 H   0  0  0  0  0  0  0  0  0  0  0  0
    4.4569   -4.1326    0.0000 H   0  0  0  0  0  0  0  0  0  0  0  0
    2.4470   -4.1254    0.0000 H   0  0  0  0  0  0  0  0  0  0  0  0
    1.3954   -4.2127    0.0000 H   0  0  0  0  0  0  0  0  0  0  0  0
   -0.2456   -4.3852    0.0000 H   0  0  0  0  0  0  0  0  0  0  0  0
   -2.5209   -2.4691    0.0000 H   0  0  0  0  0  0  0  0  0  0  0  0
    0.6117   -0.7030    0.0000 H   0  0  0  0  0  0  0  0  0  0  0  0
   -1.8497   -0.9617    0.0000 H   0  0  0  0  0  0  0  0  0  0  0  0
   -2.8196    0.3732    0.0000 H   0  0  0  0  0  0  0  0  0  0  0  0
    0.4623    0.7181    0.0000 H   0  0  0  0  0  0  0  0  0  0  0  0
    1.0966   -1.3705    0.0000 H   0  0  0  0  0  0  0  0  0  0  0  0
    8.3735   -4.2204    0.0000 H   0  0  0  0  0  0  0  0  0  0  0  0
    9.8024   -3.3954    0.0000 H   0  0  0  0  0  0  0  0  0  0  0  0
  1  2  2  0  0  0  0
  2  3  1  0  0  0  0
  3  4  1  0  0  0  0
  4  5  1  0  0  0  0
  5  6  1  0  0  0  0
  6  7  1  0  0  0  0
  7  8  1  0  0  0  0
  8  9  4  0  0  0  0
  9 10  4  0  0  0  0
 10 11  1  0  0  0  0
 11 12  4  0  0  0  0
 12 13  4  0  0  0  0
 13 14  4  0  0  0  0
 14 15  4  0  0  0  0
 15 16  4  0  0  0  0
 16 17  4  0  0  0  0
 17 18  4  0  0  0  0
 18 19  1  0  0  0  0
 19 20  1  0  0  0  0
 20 21  4  0  0  0  0
 21 22  4  0  0  0  0
 22 23  4  0  0  0  0
 23 24  1  0  0  0  0
 23 25  4  0  0  0  0
 25 26  1  0  0  0  0
 25 27  4  0  0  0  0
 20 27  4  0  0  0  0
 18 28  4  0  0  0  0
 14 28  4  0  0  0  0
 28 29  4  0  0  0  0
 11 29  4  0  0  0  0
 10 30  4  0  0  0  0
 30 31  4  0  0  0  0
  8 31  4  0  0  0  0
  2 32  1  0  0  0  0
 32 33  1  0  0  0  0
  3 34  1  0  0  0  0
  3 35  1  0  0  0  0
  4 36  1  0  0  0  0
  4 37  1  0  0  0  0
  5 38  1  0  0  0  0
  5 39  1  0  0  0  0
  6 40  1  0  0  0  0
  6 41  1  0  0  0  0
  7 42  1  0  0  0  0
  7 43  1  0  0  0  0
  9 44  1  0  0  0  0
 12 45  1  0  0  0  0
 13 46  1  0  0  0  0
 16 47  1  0  0  0  0
 19 48  1  0  0  0  0
 21 49  1  0  0  0  0
 22 50  1  0  0  0  0
 27 51  1  0  0  0  0
 29 52  1  0  0  0  0
 32 53  1  0  0  0  0
 33 54  1  0  0  0  0
M  END
>  <Molecule ChEMBL ID>
CHEMBL3920583

>  <Compound Key>
9a

>  <Active>
1

>  <StandardizerResult>
Dearomatize (ID: Dearomatize)
Clear Stereo (ID: ClearStereo)
Wedge Clean (ID: WedgeClean)
Mesomerize (ID: Mesomerize)
Tautomerize (ID: Tautomerize)
Aromatize (ID: Aromatize)
Add Explicit Hydrogens (ID: AddExplicitH)
Neutralize (ID: Neutralize)
Clean 2D (ID: Clean2D)


$$$$

  Mrv1551102232211292D          

 55 57  0  0  0  0            999 V2000
    4.5196   -4.7792    0.0000 O   0  0  0  0  0  0  0  0  0  0  0  0
    4.5196   -5.6042    0.0000 C   0  0  0  0  0  0  0  0  0  0  0  0
    3.8051   -6.0167    0.0000 C   0  0  0  0  0  0  0  0  0  0  0  0
    3.0907   -5.6042    0.0000 C   0  0  0  0  0  0  0  0  0  0  0  0
    2.3762   -6.0167    0.0000 C   0  0  0  0  0  0  0  0  0  0  0  0
    1.6617   -5.6042    0.0000 C   0  0  0  0  0  0  0  0  0  0  0  0
    0.9473   -6.0167    0.0000 C   0  0  0  0  0  0  0  0  0  0  0  0
    0.2328   -5.6042    0.0000 C   0  0  0  0  0  0  0  0  0  0  0  0
   -0.4817   -6.0167    0.0000 C   0  0  0  0  0  0  0  0  0  0  0  0
   -0.4817   -6.8417    0.0000 O   0  0  0  0  0  0  0  0  0  0  0  0
   -1.1962   -5.6042    0.0000 N   0  0  0  0  0  0  0  0  0  0  0  0
   -1.9106   -6.0167    0.0000 C   0  0  0  0  0  0  0  0  0  0  0  0
   -1.9106   -6.8417    0.0000 C   0  0  0  0  0  0  0  0  0  0  0  0
   -2.6251   -7.2542    0.0000 C   0  0  0  0  0  0  0  0  0  0  0  0
   -3.3396   -6.8417    0.0000 C   0  0  0  0  0  0  0  0  0  0  0  0
   -3.3396   -6.0167    0.0000 C   0  0  0  0  0  0  0  0  0  0  0  0
   -4.0540   -5.6042    0.0000 C   0  0  0  0  0  0  0  0  0  0  0  0
   -4.8077   -5.9398    0.0000 C   0  0  0  0  0  0  0  0  0  0  0  0
   -5.3597   -5.3267    0.0000 N   0  0  0  0  0  0  0  0  0  0  0  0
   -6.1802   -5.4129    0.0000 C   0  0  0  0  0  0  0  0  0  0  0  0
   -6.5158   -6.1666    0.0000 C   0  0  0  0  0  0  0  0  0  0  0  0
   -7.3363   -6.2528    0.0000 C   0  0  0  0  0  0  0  0  0  0  0  0
   -7.8212   -5.5854    0.0000 C   0  0  0  0  0  0  0  0  0  0  0  0
   -7.4856   -4.8317    0.0000 C   0  0  0  0  0  0  0  0  0  0  0  0
   -6.6651   -4.7455    0.0000 C   0  0  0  0  0  0  0  0  0  0  0  0
   -4.9472   -4.6122    0.0000 N   0  0  0  0  0  0  0  0  0  0  0  0
   -4.1403   -4.7837    0.0000 N   0  0  0  0  0  0  0  0  0  0  0  0
   -2.6251   -5.6042    0.0000 C   0  0  0  0  0  0  0  0  0  0  0  0
    5.2341   -6.0167    0.0000 N   0  0  0  0  0  0  0  0  0  0  0  0
    5.9486   -5.6042    0.0000 O   0  0  0  0  0  0  0  0  0  0  0  0
    3.4349   -6.7540    0.0000 H   0  0  0  0  0  0  0  0  0  0  0  0
    4.1754   -6.7540    0.0000 H   0  0  0  0  0  0  0  0  0  0  0  0
    3.4609   -4.8670    0.0000 H   0  0  0  0  0  0  0  0  0  0  0  0
    2.7204   -4.8670    0.0000 H   0  0  0  0  0  0  0  0  0  0  0  0
    2.0059   -6.7540    0.0000 H   0  0  0  0  0  0  0  0  0  0  0  0
    2.7465   -6.7540    0.0000 H   0  0  0  0  0  0  0  0  0  0  0  0
    2.0320   -4.8670    0.0000 H   0  0  0  0  0  0  0  0  0  0  0  0
    1.2915   -4.8670    0.0000 H   0  0  0  0  0  0  0  0  0  0  0  0
    0.5770   -6.7540    0.0000 H   0  0  0  0  0  0  0  0  0  0  0  0
    1.3175   -6.7540    0.0000 H   0  0  0  0  0  0  0  0  0  0  0  0
    0.6030   -4.8670    0.0000 H   0  0  0  0  0  0  0  0  0  0  0  0
   -0.1375   -4.8670    0.0000 H   0  0  0  0  0  0  0  0  0  0  0  0
   -1.1962   -4.7792    0.0000 H   0  0  0  0  0  0  0  0  0  0  0  0
   -1.1962   -7.2542    0.0000 H   0  0  0  0  0  0  0  0  0  0  0  0
   -2.6251   -8.0792    0.0000 H   0  0  0  0  0  0  0  0  0  0  0  0
   -4.0540   -7.2542    0.0000 H   0  0  0  0  0  0  0  0  0  0  0  0
   -4.9792   -6.7467    0.0000 H   0  0  0  0  0  0  0  0  0  0  0  0
   -6.0309   -6.8340    0.0000 H   0  0  0  0  0  0  0  0  0  0  0  0
   -7.6718   -7.0065    0.0000 H   0  0  0  0  0  0  0  0  0  0  0  0
   -8.6417   -5.6716    0.0000 H   0  0  0  0  0  0  0  0  0  0  0  0
   -7.9706   -4.1643    0.0000 H   0  0  0  0  0  0  0  0  0  0  0  0
   -6.3296   -3.9918    0.0000 H   0  0  0  0  0  0  0  0  0  0  0  0
   -2.6251   -4.7792    0.0000 H   0  0  0  0  0  0  0  0  0  0  0  0
    5.2341   -6.8417    0.0000 H   0  0  0  0  0  0  0  0  0  0  0  0
    6.6630   -6.0167    0.0000 H   0  0  0  0  0  0  0  0  0  0  0  0
  1  2  2  0  0  0  0
  2  3  1  0  0  0  0
  3  4  1  0  0  0  0
  4  5  1  0  0  0  0
  5  6  1  0  0  0  0
  6  7  1  0  0  0  0
  7  8  1  0  0  0  0
  8  9  1  0  0  0  0
  9 10  2  0  0  0  0
  9 11  1  0  0  0  0
 11 12  1  0  0  0  0
 12 13  4  0  0  0  0
 13 14  4  0  0  0  0
 14 15  4  0  0  0  0
 15 16  4  0  0  0  0
 16 17  1  0  0  0  0
 17 18  4  0  0  0  0
 18 19  4  0  0  0  0
 19 20  1  0  0  0  0
 20 21  4  0  0  0  0
 21 22  4  0  0  0  0
 22 23  4  0  0  0  0
 23 24  4  0  0  0  0
 24 25  4  0  0  0  0
 20 25  4  0  0  0  0
 19 26  4  0  0  0  0
 26 27  4  0  0  0  0
 17 27  4  0  0  0  0
 16 28  4  0  0  0  0
 12 28  4  0  0  0  0
  2 29  1  0  0  0  0
 29 30  1  0  0  0  0
  3 31  1  0  0  0  0
  3 32  1  0  0  0  0
  4 33  1  0  0  0  0
  4 34  1  0  0  0  0
  5 35  1  0  0  0  0
  5 36  1  0  0  0  0
  6 37  1  0  0  0  0
  6 38  1  0  0  0  0
  7 39  1  0  0  0  0
  7 40  1  0  0  0  0
  8 41  1  0  0  0  0
  8 42  1  0  0  0  0
 11 43  1  0  0  0  0
 13 44  1  0  0  0  0
 14 45  1  0  0  0  0
 15 46  1  0  0  0  0
 18 47  1  0  0  0  0
 21 48  1  0  0  0  0
 22 49  1  0  0  0  0
 23 50  1  0  0  0  0
 24 51  1  0  0  0  0
 25 52  1  0  0  0  0
 28 53  1  0  0  0  0
 29 54  1  0  0  0  0
 30 55  1  0  0  0  0
M  END
>  <Molecule ChEMBL ID>
CHEMBL519668

>  <Compound Key>
4a

>  <Active>
1

>  <StandardizerResult>
Dearomatize (ID: Dearomatize)
Clear Stereo (ID: ClearStereo)
Wedge Clean (ID: WedgeClean)
Mesomerize (ID: Mesomerize)
Tautomerize (ID: Tautomerize)
Aromatize (ID: Aromatize)
Add Explicit Hydrogens (ID: AddExplicitH)
Neutralize (ID: Neutralize)
Clean 2D (ID: Clean2D)


$$$$

  Mrv1551102232211292D          

 42 44  0  0  0  0            999 V2000
    7.1447    2.4754    0.0000 O   0  0  0  0  0  0  0  0  0  0  0  0
    7.1447    1.6504    0.0000 C   0  0  0  0  0  0  0  0  0  0  0  0
    6.4302    1.2379    0.0000 C   0  0  0  0  0  0  0  0  0  0  0  0
    5.7158    1.6504    0.0000 C   0  0  0  0  0  0  0  0  0  0  0  0
    5.0013    1.2379    0.0000 C   0  0  0  0  0  0  0  0  0  0  0  0
    4.2868    1.6504    0.0000 C   0  0  0  0  0  0  0  0  0  0  0  0
    3.5724    1.2379    0.0000 C   0  0  0  0  0  0  0  0  0  0  0  0
    2.8579    1.6504    0.0000 N   0  0  0  0  0  0  0  0  0  0  0  0
    2.1434    1.2379    0.0000 C   0  0  0  0  0  0  0  0  0  0  0  0
    2.1434    0.4129    0.0000 O   0  0  0  0  0  0  0  0  0  0  0  0
    1.4289    1.6504    0.0000 C   0  0  0  0  0  0  0  0  0  0  0  0
    0.7145    1.2379    0.0000 C   0  0  0  0  0  0  0  0  0  0  0  0
    0.0000    1.6504    0.0000 C   0  0  0  0  0  0  0  0  0  0  0  0
    0.0000    2.4754    0.0000 C   0  0  0  0  0  0  0  0  0  0  0  0
    0.7145    2.8879    0.0000 C   0  0  0  0  0  0  0  0  0  0  0  0
    0.7145    3.7129    0.0000 C   0  0  0  0  0  0  0  0  0  0  0  0
    1.4289    4.1254    0.0000 C   0  0  0  0  0  0  0  0  0  0  0  0
    2.1434    3.7129    0.0000 C   0  0  0  0  0  0  0  0  0  0  0  0
    2.1434    2.8879    0.0000 C   0  0  0  0  0  0  0  0  0  0  0  0
    1.4289    2.4754    0.0000 C   0  0  0  0  0  0  0  0  0  0  0  0
    2.8579    2.4754    0.0000 C   0  0  0  0  0  0  0  0  0  0  0  0
    3.5724    2.8879    0.0000 O   0  0  0  0  0  0  0  0  0  0  0  0
    7.8592    1.2379    0.0000 N   0  0  0  0  0  0  0  0  0  0  0  0
    8.5737    1.6504    0.0000 O   0  0  0  0  0  0  0  0  0  0  0  0
    6.0600    0.5007    0.0000 H   0  0  0  0  0  0  0  0  0  0  0  0
    6.8005    0.5007    0.0000 H   0  0  0  0  0  0  0  0  0  0  0  0
    6.0860    2.3877    0.0000 H   0  0  0  0  0  0  0  0  0  0  0  0
    5.3455    2.3877    0.0000 H   0  0  0  0  0  0  0  0  0  0  0  0
    4.6310    0.5007    0.0000 H   0  0  0  0  0  0  0  0  0  0  0  0
    5.3716    0.5007    0.0000 H   0  0  0  0  0  0  0  0  0  0  0  0
    4.6571    2.3877    0.0000 H   0  0  0  0  0  0  0  0  0  0  0  0
    3.9166    2.3877    0.0000 H   0  0  0  0  0  0  0  0  0  0  0  0
    3.2021    0.5007    0.0000 H   0  0  0  0  0  0  0  0  0  0  0  0
    3.9426    0.5007    0.0000 H   0  0  0  0  0  0  0  0  0  0  0  0
    0.7145    0.4129    0.0000 H   0  0  0  0  0  0  0  0  0  0  0  0
   -0.7145    1.2379    0.0000 H   0  0  0  0  0  0  0  0  0  0  0  0
   -0.7145    2.8879    0.0000 H   0  0  0  0  0  0  0  0  0  0  0  0
    0.0000    4.1254    0.0000 H   0  0  0  0  0  0  0  0  0  0  0  0
    1.4289    4.9504    0.0000 H   0  0  0  0  0  0  0  0  0  0  0  0
    2.8579    4.1254    0.0000 H   0  0  0  0  0  0  0  0  0  0  0  0
    7.8592    0.4129    0.0000 H   0  0  0  0  0  0  0  0  0  0  0  0
    9.2881    1.2379    0.0000 H   0  0  0  0  0  0  0  0  0  0  0  0
  1  2  2  0  0  0  0
  2  3  1  0  0  0  0
  3  4  1  0  0  0  0
  4  5  1  0  0  0  0
  5  6  1  0  0  0  0
  6  7  1  0  0  0  0
  7  8  1  0  0  0  0
  8  9  1  0  0  0  0
  9 10  2  0  0  0  0
  9 11  1  0  0  0  0
 11 12  4  0  0  0  0
 12 13  4  0  0  0  0
 13 14  4  0  0  0  0
 14 15  4  0  0  0  0
 15 16  4  0  0  0  0
 16 17  4  0  0  0  0
 17 18  4  0  0  0  0
 18 19  4  0  0  0  0
 19 20  4  0  0  0  0
 11 20  4  0  0  0  0
 15 20  4  0  0  0  0
 19 21  1  0  0  0  0
  8 21  1  0  0  0  0
 21 22  2  0  0  0  0
  2 23  1  0  0  0  0
 23 24  1  0  0  0  0
  3 25  1  0  0  0  0
  3 26  1  0  0  0  0
  4 27  1  0  0  0  0
  4 28  1  0  0  0  0
  5 29  1  0  0  0  0
  5 30  1  0  0  0  0
  6 31  1  0  0  0  0
  6 32  1  0  0  0  0
  7 33  1  0  0  0  0
  7 34  1  0  0  0  0
 12 35  1  0  0  0  0
 13 36  1  0  0  0  0
 14 37  1  0  0  0  0
 16 38  1  0  0  0  0
 17 39  1  0  0  0  0
 18 40  1  0  0  0  0
 23 41  1  0  0  0  0
 24 42  1  0  0  0  0
M  END
>  <Molecule ChEMBL ID>
CHEMBL96051

>  <Compound Key>
3

>  <Active>
1

>  <StandardizerResult>
Dearomatize (ID: Dearomatize)
Clear Stereo (ID: ClearStereo)
Wedge Clean (ID: WedgeClean)
Mesomerize (ID: Mesomerize)
Tautomerize (ID: Tautomerize)
Aromatize (ID: Aromatize)
Add Explicit Hydrogens (ID: AddExplicitH)
Neutralize (ID: Neutralize)
Clean 2D (ID: Clean2D)


$$$$

  Mrv1551102232211292D          

 68 72  0  0  0  0            999 V2000
    7.1326  -11.5257    0.0000 O   0  0  0  0  0  0  0  0  0  0  0  0
    6.4181  -11.1132    0.0000 C   0  0  0  0  0  0  0  0  0  0  0  0
    6.4181  -10.2882    0.0000 C   0  0  0  0  0  0  0  0  0  0  0  0
    5.7036   -9.8757    0.0000 C   0  0  0  0  0  0  0  0  0  0  0  0
    5.7036   -9.0507    0.0000 C   0  0  0  0  0  0  0  0  0  0  0  0
    4.9892   -8.6382    0.0000 C   0  0  0  0  0  0  0  0  0  0  0  0
    4.9892   -7.8132    0.0000 C   0  0  0  0  0  0  0  0  0  0  0  0
    5.7036   -7.4007    0.0000 C   0  0  0  0  0  0  0  0  0  0  0  0
    5.7036   -6.5757    0.0000 C   0  0  0  0  0  0  0  0  0  0  0  0
    4.9892   -6.1632    0.0000 N   0  0  0  0  0  0  0  0  0  0  0  0
    4.2747   -6.5757    0.0000 C   0  0  0  0  0  0  0  0  0  0  0  0
    3.5602   -6.1632    0.0000 C   0  0  0  0  0  0  0  0  0  0  0  0
    3.5602   -5.3382    0.0000 N   0  0  0  0  0  0  0  0  0  0  0  0
    2.8458   -4.9257    0.0000 C   0  0  0  0  0  0  0  0  0  0  0  0
    2.1313   -5.3382    0.0000 O   0  0  0  0  0  0  0  0  0  0  0  0
    2.8458   -4.1007    0.0000 C   0  0  0  0  0  0  0  0  0  0  0  0
    2.1313   -3.6882    0.0000 C   0  0  0  0  0  0  0  0  0  0  0  0
    2.1313   -2.8632    0.0000 C   0  0  0  0  0  0  0  0  0  0  0  0
    1.4168   -2.4507    0.0000 C   0  0  0  0  0  0  0  0  0  0  0  0
    1.4168   -1.6257    0.0000 C   0  0  0  0  0  0  0  0  0  0  0  0
    0.7023   -1.2132    0.0000 N   0  0  0  0  0  0  0  0  0  0  0  0
    0.7023   -0.3882    0.0000 N   0  0  0  0  0  0  0  0  0  0  0  0
    1.4168    0.0243    0.0000 C   0  0  0  0  0  0  0  0  0  0  0  0
    1.4168    0.8493    0.0000 O   0  0  0  0  0  0  0  0  0  0  0  0
    2.1313   -0.3882    0.0000 C   0  0  0  0  0  0  0  0  0  0  0  0
    2.8458    0.0243    0.0000 C   0  0  0  0  0  0  0  0  0  0  0  0
    3.5602   -0.3882    0.0000 C   0  0  0  0  0  0  0  0  0  0  0  0
    3.5602   -1.2132    0.0000 C   0  0  0  0  0  0  0  0  0  0  0  0
    2.8458   -1.6257    0.0000 C   0  0  0  0  0  0  0  0  0  0  0  0
    2.1313   -1.2132    0.0000 C   0  0  0  0  0  0  0  0  0  0  0  0
    2.8458   -2.4507    0.0000 C   0  0  0  0  0  0  0  0  0  0  0  0
    3.5602   -2.8632    0.0000 C   0  0  0  0  0  0  0  0  0  0  0  0
    3.5602   -3.6882    0.0000 C   0  0  0  0  0  0  0  0  0  0  0  0
    4.2747   -4.1007    0.0000 F   0  0  0  0  0  0  0  0  0  0  0  0
    4.2747   -4.9257    0.0000 C   0  0  0  0  0  0  0  0  0  0  0  0
    4.9892   -5.3382    0.0000 C   0  0  0  0  0  0  0  0  0  0  0  0
    6.4181   -7.8132    0.0000 C   0  0  0  0  0  0  0  0  0  0  0  0
    6.4181   -8.6382    0.0000 C   0  0  0  0  0  0  0  0  0  0  0  0
    5.7036  -11.5257    0.0000 N   0  0  0  0  0  0  0  0  0  0  0  0
    5.7036  -12.3507    0.0000 O   0  0  0  0  0  0  0  0  0  0  0  0
    7.1326   -9.8757    0.0000 H   0  0  0  0  0  0  0  0  0  0  0  0
    4.9892  -10.2882    0.0000 H   0  0  0  0  0  0  0  0  0  0  0  0
    4.2747   -9.0507    0.0000 H   0  0  0  0  0  0  0  0  0  0  0  0
    4.2747   -7.4007    0.0000 H   0  0  0  0  0  0  0  0  0  0  0  0
    6.5272   -6.5278    0.0000 H   0  0  0  0  0  0  0  0  0  0  0  0
    6.1570   -5.8865    0.0000 H   0  0  0  0  0  0  0  0  0  0  0  0
    4.9892   -6.9882    0.0000 H   0  0  0  0  0  0  0  0  0  0  0  0
    3.5602   -6.9882    0.0000 H   0  0  0  0  0  0  0  0  0  0  0  0
    2.7850   -5.8811    0.0000 H   0  0  0  0  0  0  0  0  0  0  0  0
    2.7850   -6.4454    0.0000 H   0  0  0  0  0  0  0  0  0  0  0  0
    1.4168   -4.1007    0.0000 H   0  0  0  0  0  0  0  0  0  0  0  0
    0.5932   -2.4987    0.0000 H   0  0  0  0  0  0  0  0  0  0  0  0
    0.9635   -3.1400    0.0000 H   0  0  0  0  0  0  0  0  0  0  0  0
   -0.0121    0.0243    0.0000 H   0  0  0  0  0  0  0  0  0  0  0  0
    2.8458    0.8493    0.0000 H   0  0  0  0  0  0  0  0  0  0  0  0
    4.2747    0.0243    0.0000 H   0  0  0  0  0  0  0  0  0  0  0  0
    4.2747   -1.6257    0.0000 H   0  0  0  0  0  0  0  0  0  0  0  0
    2.1313   -2.0382    0.0000 H   0  0  0  0  0  0  0  0  0  0  0  0
    3.5602   -2.0382    0.0000 H   0  0  0  0  0  0  0  0  0  0  0  0
    4.3852   -2.8632    0.0000 H   0  0  0  0  0  0  0  0  0  0  0  0
    4.9892   -4.5132    0.0000 H   0  0  0  0  0  0  0  0  0  0  0  0
    4.2747   -5.7507    0.0000 H   0  0  0  0  0  0  0  0  0  0  0  0
    5.7644   -5.6204    0.0000 H   0  0  0  0  0  0  0  0  0  0  0  0
    5.7644   -5.0561    0.0000 H   0  0  0  0  0  0  0  0  0  0  0  0
    7.1326   -7.4007    0.0000 H   0  0  0  0  0  0  0  0  0  0  0  0
    7.1326   -9.0507    0.0000 H   0  0  0  0  0  0  0  0  0  0  0  0
    4.9892  -11.1132    0.0000 H   0  0  0  0  0  0  0  0  0  0  0  0
    4.9892  -12.7632    0.0000 H   0  0  0  0  0  0  0  0  0  0  0  0
  1  2  2  0  0  0  0
  3  2  1  4  0  0  0
  3  4  2  0  0  0  0
  4  5  1  0  0  0  0
  5  6  4  0  0  0  0
  6  7  4  0  0  0  0
  7  8  4  0  0  0  0
  8  9  1  0  0  0  0
  9 10  1  0  0  0  0
 10 11  1  0  0  0  0
 11 12  1  0  0  0  0
 12 13  1  0  0  0  0
 13 14  1  0  0  0  0
 14 15  2  0  0  0  0
 14 16  1  0  0  0  0
 16 17  4  0  0  0  0
 17 18  4  0  0  0  0
 18 19  1  0  0  0  0
 19 20  1  0  0  0  0
 20 21  2  0  0  0  0
 21 22  1  0  0  0  0
 22 23  1  0  0  0  0
 23 24  2  0  0  0  0
 23 25  1  0  0  0  0
 25 26  4  0  0  0  0
 26 27  4  0  0  0  0
 27 28  4  0  0  0  0
 28 29  4  0  0  0  0
 29 30  4  0  0  0  0
 20 30  1  0  0  0  0
 25 30  4  0  0  0  0
 18 31  4  0  0  0  0
 31 32  4  0  0  0  0
 32 33  4  0  0  0  0
 16 33  4  0  0  0  0
 33 34  1  0  0  0  0
 13 35  1  0  0  0  0
 35 36  1  0  0  0  0
 10 36  1  0  0  0  0
  8 37  4  0  0  0  0
 37 38  4  0  0  0  0
  5 38  4  0  0  0  0
  2 39  1  0  0  0  0
 39 40  1  0  0  0  0
  3 41  1  0  0  0  0
  4 42  1  0  0  0  0
  6 43  1  0  0  0  0
  7 44  1  0  0  0  0
  9 45  1  0  0  0  0
  9 46  1  0  0  0  0
 11 47  1  0  0  0  0
 11 48  1  0  0  0  0
 12 49  1  0  0  0  0
 12 50  1  0  0  0  0
 17 51  1  0  0  0  0
 19 52  1  0  0  0  0
 19 53  1  0  0  0  0
 22 54  1  0  0  0  0
 26 55  1  0  0  0  0
 27 56  1  0  0  0  0
 28 57  1  0  0  0  0
 29 58  1  0  0  0  0
 31 59  1  0  0  0  0
 32 60  1  0  0  0  0
 35 61  1  0  0  0  0
 35 62  1  0  0  0  0
 36 63  1  0  0  0  0
 36 64  1  0  0  0  0
 37 65  1  0  0  0  0
 38 66  1  0  0  0  0
 39 67  1  0  0  0  0
 40 68  1  0  0  0  0
M  END
>  <Molecule ChEMBL ID>
CHEMBL4078014

>  <Compound Key>
P2

>  <Active>
1

>  <StandardizerResult>
Dearomatize (ID: Dearomatize)
Clear Stereo (ID: ClearStereo)
Wedge Clean (ID: WedgeClean)
Mesomerize (ID: Mesomerize)
Tautomerize (ID: Tautomerize)
Aromatize (ID: Aromatize)
Add Explicit Hydrogens (ID: AddExplicitH)
Neutralize (ID: Neutralize)
Clean 2D (ID: Clean2D)


$$$$

  Mrv1551102232211292D          

 46 47  0  0  0  0            999 V2000
   -1.4116    0.0226    0.0000 C   0  0  0  0  0  0  0  0  0  0  0  0
   -0.6971   -0.3899    0.0000 O   0  0  0  0  0  0  0  0  0  0  0  0
   -0.6971   -1.2149    0.0000 C   0  0  0  0  0  0  0  0  0  0  0  0
    0.0173   -1.6274    0.0000 C   0  0  0  0  0  0  0  0  0  0  0  0
    0.0173   -2.4524    0.0000 C   0  0  0  0  0  0  0  0  0  0  0  0
    0.7318   -2.8649    0.0000 C   0  0  0  0  0  0  0  0  0  0  0  0
    0.7318   -3.6899    0.0000 O   0  0  0  0  0  0  0  0  0  0  0  0
    1.4463   -2.4524    0.0000 N   0  0  0  0  0  0  0  0  0  0  0  0
    2.1607   -2.8649    0.0000 C   0  0  0  0  0  0  0  0  0  0  0  0
    2.8752   -2.4524    0.0000 C   0  0  0  0  0  0  0  0  0  0  0  0
    3.5897   -2.8649    0.0000 C   0  0  0  0  0  0  0  0  0  0  0  0
    4.3042   -2.4524    0.0000 C   0  0  0  0  0  0  0  0  0  0  0  0
    5.0186   -2.8649    0.0000 C   0  0  0  0  0  0  0  0  0  0  0  0
    5.0186   -3.6899    0.0000 C   0  0  0  0  0  0  0  0  0  0  0  0
    5.7331   -4.1024    0.0000 C   0  0  0  0  0  0  0  0  0  0  0  0
    5.7331   -4.9274    0.0000 C   0  0  0  0  0  0  0  0  0  0  0  0
    6.4476   -5.3399    0.0000 C   0  0  0  0  0  0  0  0  0  0  0  0
    7.1620   -4.9274    0.0000 O   0  0  0  0  0  0  0  0  0  0  0  0
    6.4476   -6.1649    0.0000 N   0  0  0  0  0  0  0  0  0  0  0  0
    7.1620   -6.5774    0.0000 O   0  0  0  0  0  0  0  0  0  0  0  0
    4.3042   -4.1024    0.0000 C   0  0  0  0  0  0  0  0  0  0  0  0
    3.5897   -3.6899    0.0000 C   0  0  0  0  0  0  0  0  0  0  0  0
   -0.6971   -2.8649    0.0000 C   0  0  0  0  0  0  0  0  0  0  0  0
   -1.4116   -2.4524    0.0000 C   0  0  0  0  0  0  0  0  0  0  0  0
   -1.4116   -1.6274    0.0000 C   0  0  0  0  0  0  0  0  0  0  0  0
   -2.1261   -1.2149    0.0000 O   0  0  0  0  0  0  0  0  0  0  0  0
   -0.9991    0.7370    0.0000 H   0  0  0  0  0  0  0  0  0  0  0  0
   -2.1261    0.4351    0.0000 H   0  0  0  0  0  0  0  0  0  0  0  0
   -1.8241   -0.6919    0.0000 H   0  0  0  0  0  0  0  0  0  0  0  0
    0.7318   -1.2149    0.0000 H   0  0  0  0  0  0  0  0  0  0  0  0
    1.4463   -1.6274    0.0000 H   0  0  0  0  0  0  0  0  0  0  0  0
    1.7905   -3.6022    0.0000 H   0  0  0  0  0  0  0  0  0  0  0  0
    2.5310   -3.6022    0.0000 H   0  0  0  0  0  0  0  0  0  0  0  0
    3.2455   -1.7152    0.0000 H   0  0  0  0  0  0  0  0  0  0  0  0
    2.5050   -1.7152    0.0000 H   0  0  0  0  0  0  0  0  0  0  0  0
    4.3042   -1.6274    0.0000 H   0  0  0  0  0  0  0  0  0  0  0  0
    5.7331   -2.4524    0.0000 H   0  0  0  0  0  0  0  0  0  0  0  0
    6.4476   -3.6899    0.0000 H   0  0  0  0  0  0  0  0  0  0  0  0
    5.0186   -5.3399    0.0000 H   0  0  0  0  0  0  0  0  0  0  0  0
    5.7331   -6.5774    0.0000 H   0  0  0  0  0  0  0  0  0  0  0  0
    7.1620   -7.4024    0.0000 H   0  0  0  0  0  0  0  0  0  0  0  0
    4.3042   -4.9274    0.0000 H   0  0  0  0  0  0  0  0  0  0  0  0
    2.8752   -4.1024    0.0000 H   0  0  0  0  0  0  0  0  0  0  0  0
   -0.6971   -3.6899    0.0000 H   0  0  0  0  0  0  0  0  0  0  0  0
   -2.1261   -2.8649    0.0000 H   0  0  0  0  0  0  0  0  0  0  0  0
   -2.9230   -1.4284    0.0000 H   0  0  0  0  0  0  0  0  0  0  0  0
  1  2  1  0  0  0  0
  2  3  1  0  0  0  0
  3  4  4  0  0  0  0
  4  5  4  0  0  0  0
  5  6  1  0  0  0  0
  6  7  2  0  0  0  0
  6  8  1  0  0  0  0
  8  9  1  0  0  0  0
  9 10  1  0  0  0  0
 10 11  1  0  0  0  0
 11 12  4  0  0  0  0
 12 13  4  0  0  0  0
 13 14  4  0  0  0  0
 15 14  1  4  0  0  0
 15 16  2  0  0  0  0
 16 17  1  0  0  0  0
 17 18  2  0  0  0  0
 17 19  1  0  0  0  0
 19 20  1  0  0  0  0
 14 21  4  0  0  0  0
 21 22  4  0  0  0  0
 11 22  4  0  0  0  0
  5 23  4  0  0  0  0
 23 24  4  0  0  0  0
 24 25  4  0  0  0  0
  3 25  4  0  0  0  0
 25 26  1  0  0  0  0
  1 27  1  0  0  0  0
  1 28  1  0  0  0  0
  1 29  1  0  0  0  0
  4 30  1  0  0  0  0
  8 31  1  0  0  0  0
  9 32  1  0  0  0  0
  9 33  1  0  0  0  0
 10 34  1  0  0  0  0
 10 35  1  0  0  0  0
 12 36  1  0  0  0  0
 13 37  1  0  0  0  0
 15 38  1  0  0  0  0
 16 39  1  0  0  0  0
 19 40  1  0  0  0  0
 20 41  1  0  0  0  0
 21 42  1  0  0  0  0
 22 43  1  0  0  0  0
 23 44  1  0  0  0  0
 24 45  1  0  0  0  0
 26 46  1  0  0  0  0
M  END
>  <Molecule ChEMBL ID>
CHEMBL4102654

>  <Compound Key>
15b

>  <Active>
0

>  <StandardizerResult>
Dearomatize (ID: Dearomatize)
Clear Stereo (ID: ClearStereo)
Wedge Clean (ID: WedgeClean)
Mesomerize (ID: Mesomerize)
Tautomerize (ID: Tautomerize)
Aromatize (ID: Aromatize)
Add Explicit Hydrogens (ID: AddExplicitH)
Neutralize (ID: Neutralize)
Clean 2D (ID: Clean2D)


$$$$

  Mrv1551102232211292D          

 47 49  0  0  0  0            999 V2000
   -7.1450   -4.9506    0.0000 O   0  0  0  0  0  0  0  0  0  0  0  0
   -7.1450   -4.1256    0.0000 C   0  0  0  0  0  0  0  0  0  0  0  0
   -6.4306   -3.7131    0.0000 C   0  0  0  0  0  0  0  0  0  0  0  0
   -6.4306   -2.8881    0.0000 C   0  0  0  0  0  0  0  0  0  0  0  0
   -5.7161   -2.4756    0.0000 C   0  0  0  0  0  0  0  0  0  0  0  0
   -5.7161   -1.6506    0.0000 C   0  0  0  0  0  0  0  0  0  0  0  0
   -5.0016   -1.2381    0.0000 C   0  0  0  0  0  0  0  0  0  0  0  0
   -4.2872   -1.6506    0.0000 C   0  0  0  0  0  0  0  0  0  0  0  0
   -3.5727   -1.2381    0.0000 C   0  0  0  0  0  0  0  0  0  0  0  0
   -2.8582   -1.6506    0.0000 C   0  0  0  0  0  0  0  0  0  0  0  0
   -2.1437   -1.2381    0.0000 N   0  0  0  0  0  0  0  0  0  0  0  0
   -1.4293   -1.6506    0.0000 C   0  0  0  0  0  0  0  0  0  0  0  0
   -1.4293   -2.4756    0.0000 O   0  0  0  0  0  0  0  0  0  0  0  0
   -0.7148   -1.2381    0.0000 C   0  0  0  0  0  0  0  0  0  0  0  0
   -0.0003   -1.6506    0.0000 C   0  0  0  0  0  0  0  0  0  0  0  0
    0.7141   -1.2381    0.0000 C   0  0  0  0  0  0  0  0  0  0  0  0
    0.7141   -0.4131    0.0000 C   0  0  0  0  0  0  0  0  0  0  0  0
   -0.0003   -0.0006    0.0000 C   0  0  0  0  0  0  0  0  0  0  0  0
   -0.7148   -0.4131    0.0000 C   0  0  0  0  0  0  0  0  0  0  0  0
   -0.0003    0.8244    0.0000 O   0  0  0  0  0  0  0  0  0  0  0  0
    0.7141    1.2369    0.0000 C   0  0  0  0  0  0  0  0  0  0  0  0
    1.4286    0.8244    0.0000 C   0  0  0  0  0  0  0  0  0  0  0  0
    1.4286   -0.0006    0.0000 O   0  0  0  0  0  0  0  0  0  0  0  0
   -4.2872   -2.4756    0.0000 C   0  0  0  0  0  0  0  0  0  0  0  0
   -5.0016   -2.8881    0.0000 C   0  0  0  0  0  0  0  0  0  0  0  0
   -7.8595   -3.7131    0.0000 N   0  0  0  0  0  0  0  0  0  0  0  0
   -8.5740   -4.1256    0.0000 O   0  0  0  0  0  0  0  0  0  0  0  0
   -5.7161   -4.1256    0.0000 H   0  0  0  0  0  0  0  0  0  0  0  0
   -7.1450   -2.4756    0.0000 H   0  0  0  0  0  0  0  0  0  0  0  0
   -6.4306   -1.2381    0.0000 H   0  0  0  0  0  0  0  0  0  0  0  0
   -5.0016   -0.4131    0.0000 H   0  0  0  0  0  0  0  0  0  0  0  0
   -3.2024   -0.5008    0.0000 H   0  0  0  0  0  0  0  0  0  0  0  0
   -3.9429   -0.5008    0.0000 H   0  0  0  0  0  0  0  0  0  0  0  0
   -3.2285   -2.3878    0.0000 H   0  0  0  0  0  0  0  0  0  0  0  0
   -2.4880   -2.3878    0.0000 H   0  0  0  0  0  0  0  0  0  0  0  0
   -2.1437   -0.4131    0.0000 H   0  0  0  0  0  0  0  0  0  0  0  0
   -0.0003   -2.4756    0.0000 H   0  0  0  0  0  0  0  0  0  0  0  0
    1.4286   -1.6506    0.0000 H   0  0  0  0  0  0  0  0  0  0  0  0
   -1.4293   -0.0006    0.0000 H   0  0  0  0  0  0  0  0  0  0  0  0
    1.0844    1.9742    0.0000 H   0  0  0  0  0  0  0  0  0  0  0  0
    0.3439    1.9742    0.0000 H   0  0  0  0  0  0  0  0  0  0  0  0
    2.2522    0.8724    0.0000 H   0  0  0  0  0  0  0  0  0  0  0  0
    1.8820    1.5137    0.0000 H   0  0  0  0  0  0  0  0  0  0  0  0
   -3.5727   -2.8881    0.0000 H   0  0  0  0  0  0  0  0  0  0  0  0
   -5.0016   -3.7131    0.0000 H   0  0  0  0  0  0  0  0  0  0  0  0
   -7.8595   -2.8881    0.0000 H   0  0  0  0  0  0  0  0  0  0  0  0
   -9.2885   -3.7131    0.0000 H   0  0  0  0  0  0  0  0  0  0  0  0
  1  2  2  0  0  0  0
  3  2  1  4  0  0  0
  3  4  2  0  0  0  0
  4  5  1  0  0  0  0
  5  6  4  0  0  0  0
  6  7  4  0  0  0  0
  7  8  4  0  0  0  0
  8  9  1  0  0  0  0
  9 10  1  0  0  0  0
 10 11  1  0  0  0  0
 11 12  1  0  0  0  0
 12 13  2  0  0  0  0
 12 14  1  0  0  0  0
 14 15  4  0  0  0  0
 15 16  4  0  0  0  0
 16 17  4  0  0  0  0
 17 18  4  0  0  0  0
 18 19  4  0  0  0  0
 14 19  4  0  0  0  0
 18 20  1  0  0  0  0
 20 21  1  0  0  0  0
 21 22  1  0  0  0  0
 22 23  1  0  0  0  0
 17 23  1  0  0  0  0
  8 24  4  0  0  0  0
 24 25  4  0  0  0  0
  5 25  4  0  0  0  0
  2 26  1  0  0  0  0
 26 27  1  0  0  0  0
  3 28  1  0  0  0  0
  4 29  1  0  0  0  0
  6 30  1  0  0  0  0
  7 31  1  0  0  0  0
  9 32  1  0  0  0  0
  9 33  1  0  0  0  0
 10 34  1  0  0  0  0
 10 35  1  0  0  0  0
 11 36  1  0  0  0  0
 15 37  1  0  0  0  0
 16 38  1  0  0  0  0
 19 39  1  0  0  0  0
 21 40  1  0  0  0  0
 21 41  1  0  0  0  0
 22 42  1  0  0  0  0
 22 43  1  0  0  0  0
 24 44  1  0  0  0  0
 25 45  1  0  0  0  0
 26 46  1  0  0  0  0
 27 47  1  0  0  0  0
M  END
>  <Molecule ChEMBL ID>
CHEMBL4075984

>  <Compound Key>
15d

>  <Active>
0

>  <StandardizerResult>
Dearomatize (ID: Dearomatize)
Clear Stereo (ID: ClearStereo)
Wedge Clean (ID: WedgeClean)
Mesomerize (ID: Mesomerize)
Tautomerize (ID: Tautomerize)
Aromatize (ID: Aromatize)
Add Explicit Hydrogens (ID: AddExplicitH)
Neutralize (ID: Neutralize)
Clean 2D (ID: Clean2D)


$$$$

  Mrv1551102232211292D          

 70 74  0  0  0  0            999 V2000
   -9.8058    4.0978    0.0000 C   0  0  0  0  0  0  0  0  0  0  0  0
   -9.3209    4.7653    0.0000 C   0  0  0  0  0  0  0  0  0  0  0  0
   -9.6565    5.5189    0.0000 C   0  0  0  0  0  0  0  0  0  0  0  0
   -9.1716    6.1864    0.0000 C   0  0  0  0  0  0  0  0  0  0  0  0
   -8.3511    6.1001    0.0000 C   0  0  0  0  0  0  0  0  0  0  0  0
   -7.8662    6.7676    0.0000 O   0  0  0  0  0  0  0  0  0  0  0  0
   -7.0457    6.6813    0.0000 C   0  0  0  0  0  0  0  0  0  0  0  0
   -6.5608    7.3488    0.0000 C   0  0  0  0  0  0  0  0  0  0  0  0
   -5.7403    7.2625    0.0000 C   0  0  0  0  0  0  0  0  0  0  0  0
   -5.4047    6.5089    0.0000 C   0  0  0  0  0  0  0  0  0  0  0  0
   -4.5842    6.4226    0.0000 N   0  0  0  0  0  0  0  0  0  0  0  0
   -4.0993    7.0901    0.0000 C   0  0  0  0  0  0  0  0  0  0  0  0
   -4.4349    7.8438    0.0000 N   0  0  0  0  0  0  0  0  0  0  0  0
   -3.9499    8.5112    0.0000 C   0  0  0  0  0  0  0  0  0  0  0  0
   -3.1295    8.4250    0.0000 N   0  0  0  0  0  0  0  0  0  0  0  0
   -2.7939    7.6713    0.0000 C   0  0  0  0  0  0  0  0  0  0  0  0
   -1.9734    7.5850    0.0000 C   0  0  0  0  0  0  0  0  0  0  0  0
   -1.6379    6.8314    0.0000 C   0  0  0  0  0  0  0  0  0  0  0  0
   -2.1228    6.1639    0.0000 C   0  0  0  0  0  0  0  0  0  0  0  0
   -1.7872    5.4103    0.0000 C   0  0  0  0  0  0  0  0  0  0  0  0
   -0.9803    5.2387    0.0000 C   0  0  0  0  0  0  0  0  0  0  0  0
   -0.8940    4.4182    0.0000 N   0  0  0  0  0  0  0  0  0  0  0  0
   -0.1796    4.0057    0.0000 C   0  0  0  0  0  0  0  0  0  0  0  0
    0.5349    4.4182    0.0000 C   0  0  0  0  0  0  0  0  0  0  0  0
    1.2494    4.0057    0.0000 C   0  0  0  0  0  0  0  0  0  0  0  0
    1.9639    4.4182    0.0000 C   0  0  0  0  0  0  0  0  0  0  0  0
    2.6783    4.0057    0.0000 C   0  0  0  0  0  0  0  0  0  0  0  0
    3.3928    4.4182    0.0000 C   0  0  0  0  0  0  0  0  0  0  0  0
    3.3928    5.2432    0.0000 O   0  0  0  0  0  0  0  0  0  0  0  0
    4.1073    4.0057    0.0000 N   0  0  0  0  0  0  0  0  0  0  0  0
    4.8217    4.4182    0.0000 O   0  0  0  0  0  0  0  0  0  0  0  0
   -1.6477    4.0827    0.0000 N   0  0  0  0  0  0  0  0  0  0  0  0
   -2.1997    4.6958    0.0000 N   0  0  0  0  0  0  0  0  0  0  0  0
   -2.9433    6.2502    0.0000 C   0  0  0  0  0  0  0  0  0  0  0  0
   -3.2788    7.0038    0.0000 C   0  0  0  0  0  0  0  0  0  0  0  0
   -5.8896    5.8414    0.0000 C   0  0  0  0  0  0  0  0  0  0  0  0
   -6.7101    5.9277    0.0000 C   0  0  0  0  0  0  0  0  0  0  0  0
   -7.1950    5.2602    0.0000 C   0  0  0  0  0  0  0  0  0  0  0  0
   -8.0155    5.3465    0.0000 C   0  0  0  0  0  0  0  0  0  0  0  0
   -8.5004    4.6790    0.0000 N   0  0  0  0  0  0  0  0  0  0  0  0
  -10.4733    4.5827    0.0000 H   0  0  0  0  0  0  0  0  0  0  0  0
  -10.2908    3.4304    0.0000 H   0  0  0  0  0  0  0  0  0  0  0  0
   -9.1384    3.6129    0.0000 H   0  0  0  0  0  0  0  0  0  0  0  0
  -10.4770    5.6052    0.0000 H   0  0  0  0  0  0  0  0  0  0  0  0
   -9.5071    6.9401    0.0000 H   0  0  0  0  0  0  0  0  0  0  0  0
   -6.8963    8.1025    0.0000 H   0  0  0  0  0  0  0  0  0  0  0  0
   -5.2554    7.9300    0.0000 H   0  0  0  0  0  0  0  0  0  0  0  0
   -4.2487    5.6690    0.0000 H   0  0  0  0  0  0  0  0  0  0  0  0
   -4.2855    9.2649    0.0000 H   0  0  0  0  0  0  0  0  0  0  0  0
   -1.4885    8.2525    0.0000 H   0  0  0  0  0  0  0  0  0  0  0  0
   -0.8174    6.7451    0.0000 H   0  0  0  0  0  0  0  0  0  0  0  0
   -0.3672    5.7908    0.0000 H   0  0  0  0  0  0  0  0  0  0  0  0
   -0.5498    3.2685    0.0000 H   0  0  0  0  0  0  0  0  0  0  0  0
    0.1907    3.2685    0.0000 H   0  0  0  0  0  0  0  0  0  0  0  0
    0.9052    5.1555    0.0000 H   0  0  0  0  0  0  0  0  0  0  0  0
    0.1647    5.1555    0.0000 H   0  0  0  0  0  0  0  0  0  0  0  0
    0.8791    3.2685    0.0000 H   0  0  0  0  0  0  0  0  0  0  0  0
    1.6196    3.2685    0.0000 H   0  0  0  0  0  0  0  0  0  0  0  0
    2.3341    5.1555    0.0000 H   0  0  0  0  0  0  0  0  0  0  0  0
    1.5936    5.1555    0.0000 H   0  0  0  0  0  0  0  0  0  0  0  0
    2.3081    3.2685    0.0000 H   0  0  0  0  0  0  0  0  0  0  0  0
    3.0486    3.2685    0.0000 H   0  0  0  0  0  0  0  0  0  0  0  0
    4.1073    3.1807    0.0000 H   0  0  0  0  0  0  0  0  0  0  0  0
    5.5362    4.0057    0.0000 H   0  0  0  0  0  0  0  0  0  0  0  0
   -3.4282    5.5827    0.0000 H   0  0  0  0  0  0  0  0  0  0  0  0
   -5.5541    5.0878    0.0000 H   0  0  0  0  0  0  0  0  0  0  0  0
   -7.6800    4.5928    0.0000 H   0  0  0  0  0  0  0  0  0  0  0  0
   -6.8595    4.5066    0.0000 H   0  0  0  0  0  0  0  0  0  0  0  0
   -6.3746    5.1740    0.0000 H   0  0  0  0  0  0  0  0  0  0  0  0
   -8.8360    5.4327    0.0000 H   0  0  0  0  0  0  0  0  0  0  0  0
  1  2  1  0  0  0  0
  2  3  4  0  0  0  0
  3  4  4  0  0  0  0
  4  5  4  0  0  0  0
  5  6  1  0  0  0  0
  6  7  1  0  0  0  0
  7  8  4  0  0  0  0
  8  9  4  0  0  0  0
  9 10  4  0  0  0  0
 10 11  1  0  0  0  0
 11 12  1  0  0  0  0
 12 13  4  0  0  0  0
 13 14  4  0  0  0  0
 14 15  4  0  0  0  0
 15 16  4  0  0  0  0
 16 17  4  0  0  0  0
 17 18  4  0  0  0  0
 18 19  4  0  0  0  0
 19 20  1  0  0  0  0
 20 21  4  0  0  0  0
 21 22  4  0  0  0  0
 22 23  1  0  0  0  0
 23 24  1  0  0  0  0
 24 25  1  0  0  0  0
 25 26  1  0  0  0  0
 26 27  1  0  0  0  0
 27 28  1  0  0  0  0
 28 29  2  0  0  0  0
 28 30  1  0  0  0  0
 30 31  1  0  0  0  0
 22 32  4  0  0  0  0
 32 33  4  0  0  0  0
 20 33  4  0  0  0  0
 19 34  4  0  0  0  0
 34 35  4  0  0  0  0
 12 35  4  0  0  0  0
 16 35  4  0  0  0  0
 10 36  4  0  0  0  0
 36 37  4  0  0  0  0
  7 37  4  0  0  0  0
 37 38  1  0  0  0  0
  5 39  4  0  0  0  0
 39 40  4  0  0  0  0
  2 40  4  0  0  0  0
  1 41  1  0  0  0  0
  1 42  1  0  0  0  0
  1 43  1  0  0  0  0
  3 44  1  0  0  0  0
  4 45  1  0  0  0  0
  8 46  1  0  0  0  0
  9 47  1  0  0  0  0
 11 48  1  0  0  0  0
 14 49  1  0  0  0  0
 17 50  1  0  0  0  0
 18 51  1  0  0  0  0
 21 52  1  0  0  0  0
 23 53  1  0  0  0  0
 23 54  1  0  0  0  0
 24 55  1  0  0  0  0
 24 56  1  0  0  0  0
 25 57  1  0  0  0  0
 25 58  1  0  0  0  0
 26 59  1  0  0  0  0
 26 60  1  0  0  0  0
 27 61  1  0  0  0  0
 27 62  1  0  0  0  0
 30 63  1  0  0  0  0
 31 64  1  0  0  0  0
 34 65  1  0  0  0  0
 36 66  1  0  0  0  0
 38 67  1  0  0  0  0
 38 68  1  0  0  0  0
 38 69  1  0  0  0  0
 39 70  1  0  0  0  0
M  END
>  <Molecule ChEMBL ID>
CHEMBL3930762

>  <Compound Key>
9i

>  <Active>
0

>  <StandardizerResult>
Dearomatize (ID: Dearomatize)
Clear Stereo (ID: ClearStereo)
Wedge Clean (ID: WedgeClean)
Mesomerize (ID: Mesomerize)
Tautomerize (ID: Tautomerize)
Aromatize (ID: Aromatize)
Add Explicit Hydrogens (ID: AddExplicitH)
Neutralize (ID: Neutralize)
Clean 2D (ID: Clean2D)


$$$$

  Mrv1551102232211292D          

 65 69  0  0  0  0            999 V2000
   -2.1850    7.0204    0.0000 C   0  0  0  0  0  0  0  0  0  0  0  0
   -1.3645    6.9341    0.0000 O   0  0  0  0  0  0  0  0  0  0  0  0
   -0.8796    7.6016    0.0000 C   0  0  0  0  0  0  0  0  0  0  0  0
   -1.2151    8.3553    0.0000 C   0  0  0  0  0  0  0  0  0  0  0  0
   -0.7302    9.0227    0.0000 C   0  0  0  0  0  0  0  0  0  0  0  0
    0.0903    8.9365    0.0000 C   0  0  0  0  0  0  0  0  0  0  0  0
    0.5752    9.6039    0.0000 N   0  0  0  0  0  0  0  0  0  0  0  0
    1.3957    9.5177    0.0000 C   0  0  0  0  0  0  0  0  0  0  0  0
    1.8806   10.1851    0.0000 C   0  0  0  0  0  0  0  0  0  0  0  0
    2.7011   10.0989    0.0000 C   0  0  0  0  0  0  0  0  0  0  0  0
    3.1860   10.7663    0.0000 Cl  0  0  0  0  0  0  0  0  0  0  0  0
    3.0366    9.3452    0.0000 C   0  0  0  0  0  0  0  0  0  0  0  0
    2.5517    8.6778    0.0000 C   0  0  0  0  0  0  0  0  0  0  0  0
    1.7312    8.7640    0.0000 C   0  0  0  0  0  0  0  0  0  0  0  0
    1.2463    8.0966    0.0000 C   0  0  0  0  0  0  0  0  0  0  0  0
    1.5819    7.3429    0.0000 N   0  0  0  0  0  0  0  0  0  0  0  0
    2.4023    7.2566    0.0000 C   0  0  0  0  0  0  0  0  0  0  0  0
    2.8873    7.9241    0.0000 C   0  0  0  0  0  0  0  0  0  0  0  0
    3.7077    7.8378    0.0000 C   0  0  0  0  0  0  0  0  0  0  0  0
    4.0433    7.0842    0.0000 C   0  0  0  0  0  0  0  0  0  0  0  0
    3.5584    6.4167    0.0000 C   0  0  0  0  0  0  0  0  0  0  0  0
    3.8939    5.6631    0.0000 C   0  0  0  0  0  0  0  0  0  0  0  0
    4.7009    5.4915    0.0000 C   0  0  0  0  0  0  0  0  0  0  0  0
    4.7871    4.6710    0.0000 N   0  0  0  0  0  0  0  0  0  0  0  0
    5.5016    4.2585    0.0000 C   0  0  0  0  0  0  0  0  0  0  0  0
    6.2161    4.6710    0.0000 C   0  0  0  0  0  0  0  0  0  0  0  0
    6.9306    4.2585    0.0000 C   0  0  0  0  0  0  0  0  0  0  0  0
    7.6450    4.6710    0.0000 C   0  0  0  0  0  0  0  0  0  0  0  0
    8.3595    4.2585    0.0000 C   0  0  0  0  0  0  0  0  0  0  0  0
    9.0740    4.6710    0.0000 C   0  0  0  0  0  0  0  0  0  0  0  0
    9.0740    5.4960    0.0000 O   0  0  0  0  0  0  0  0  0  0  0  0
    9.7884    4.2585    0.0000 N   0  0  0  0  0  0  0  0  0  0  0  0
   10.5029    4.6710    0.0000 O   0  0  0  0  0  0  0  0  0  0  0  0
    4.0335    4.3355    0.0000 N   0  0  0  0  0  0  0  0  0  0  0  0
    3.4814    4.9486    0.0000 N   0  0  0  0  0  0  0  0  0  0  0  0
    2.7379    6.5030    0.0000 C   0  0  0  0  0  0  0  0  0  0  0  0
    0.4258    8.1828    0.0000 C   0  0  0  0  0  0  0  0  0  0  0  0
   -0.0591    7.5153    0.0000 C   0  0  0  0  0  0  0  0  0  0  0  0
   -2.0987    7.8409    0.0000 H   0  0  0  0  0  0  0  0  0  0  0  0
   -3.0055    7.1066    0.0000 H   0  0  0  0  0  0  0  0  0  0  0  0
   -2.2712    6.1999    0.0000 H   0  0  0  0  0  0  0  0  0  0  0  0
   -2.0356    8.4415    0.0000 H   0  0  0  0  0  0  0  0  0  0  0  0
   -1.0658    9.7764    0.0000 H   0  0  0  0  0  0  0  0  0  0  0  0
    1.5450   10.9388    0.0000 H   0  0  0  0  0  0  0  0  0  0  0  0
    3.8571    9.2590    0.0000 H   0  0  0  0  0  0  0  0  0  0  0  0
    2.0668    8.0103    0.0000 H   0  0  0  0  0  0  0  0  0  0  0  0
    1.0969    6.6754    0.0000 H   0  0  0  0  0  0  0  0  0  0  0  0
    3.3722    8.5915    0.0000 H   0  0  0  0  0  0  0  0  0  0  0  0
    4.4614    8.1734    0.0000 H   0  0  0  0  0  0  0  0  0  0  0  0
    4.8638    6.9979    0.0000 H   0  0  0  0  0  0  0  0  0  0  0  0
    5.3140    6.0436    0.0000 H   0  0  0  0  0  0  0  0  0  0  0  0
    5.1314    3.5213    0.0000 H   0  0  0  0  0  0  0  0  0  0  0  0
    5.8719    3.5213    0.0000 H   0  0  0  0  0  0  0  0  0  0  0  0
    6.5863    5.4083    0.0000 H   0  0  0  0  0  0  0  0  0  0  0  0
    5.8458    5.4083    0.0000 H   0  0  0  0  0  0  0  0  0  0  0  0
    6.5603    3.5213    0.0000 H   0  0  0  0  0  0  0  0  0  0  0  0
    7.3008    3.5213    0.0000 H   0  0  0  0  0  0  0  0  0  0  0  0
    8.0153    5.4083    0.0000 H   0  0  0  0  0  0  0  0  0  0  0  0
    7.2748    5.4083    0.0000 H   0  0  0  0  0  0  0  0  0  0  0  0
    7.9892    3.5213    0.0000 H   0  0  0  0  0  0  0  0  0  0  0  0
    8.7298    3.5213    0.0000 H   0  0  0  0  0  0  0  0  0  0  0  0
    9.7884    3.4335    0.0000 H   0  0  0  0  0  0  0  0  0  0  0  0
   11.2174    4.2585    0.0000 H   0  0  0  0  0  0  0  0  0  0  0  0
    2.2530    5.8355    0.0000 H   0  0  0  0  0  0  0  0  0  0  0  0
    0.2765    6.7617    0.0000 H   0  0  0  0  0  0  0  0  0  0  0  0
  1  2  1  0  0  0  0
  2  3  1  0  0  0  0
  3  4  4  0  0  0  0
  4  5  4  0  0  0  0
  5  6  4  0  0  0  0
  6  7  4  0  0  0  0
  7  8  4  0  0  0  0
  8  9  4  0  0  0  0
  9 10  4  0  0  0  0
 10 11  1  0  0  0  0
 10 12  4  0  0  0  0
 12 13  4  0  0  0  0
 13 14  4  0  0  0  0
  8 14  4  0  0  0  0
 14 15  4  0  0  0  0
 15 16  1  0  0  0  0
 16 17  1  0  0  0  0
 17 18  4  0  0  0  0
 18 19  4  0  0  0  0
 19 20  4  0  0  0  0
 20 21  4  0  0  0  0
 21 22  1  0  0  0  0
 22 23  4  0  0  0  0
 23 24  4  0  0  0  0
 24 25  1  0  0  0  0
 25 26  1  0  0  0  0
 26 27  1  0  0  0  0
 27 28  1  0  0  0  0
 28 29  1  0  0  0  0
 29 30  1  0  0  0  0
 30 31  2  0  0  0  0
 30 32  1  0  0  0  0
 32 33  1  0  0  0  0
 24 34  4  0  0  0  0
 34 35  4  0  0  0  0
 22 35  4  0  0  0  0
 21 36  4  0  0  0  0
 17 36  4  0  0  0  0
 15 37  4  0  0  0  0
  6 37  4  0  0  0  0
 37 38  4  0  0  0  0
  3 38  4  0  0  0  0
  1 39  1  0  0  0  0
  1 40  1  0  0  0  0
  1 41  1  0  0  0  0
  4 42  1  0  0  0  0
  5 43  1  0  0  0  0
  9 44  1  0  0  0  0
 12 45  1  0  0  0  0
 13 46  1  0  0  0  0
 16 47  1  0  0  0  0
 18 48  1  0  0  0  0
 19 49  1  0  0  0  0
 20 50  1  0  0  0  0
 23 51  1  0  0  0  0
 25 52  1  0  0  0  0
 25 53  1  0  0  0  0
 26 54  1  0  0  0  0
 26 55  1  0  0  0  0
 27 56  1  0  0  0  0
 27 57  1  0  0  0  0
 28 58  1  0  0  0  0
 28 59  1  0  0  0  0
 29 60  1  0  0  0  0
 29 61  1  0  0  0  0
 32 62  1  0  0  0  0
 33 63  1  0  0  0  0
 36 64  1  0  0  0  0
 38 65  1  0  0  0  0
M  END
>  <Molecule ChEMBL ID>
CHEMBL4244419

>  <Compound Key>
8f

>  <Active>
0

>  <StandardizerResult>
Dearomatize (ID: Dearomatize)
Clear Stereo (ID: ClearStereo)
Wedge Clean (ID: WedgeClean)
Mesomerize (ID: Mesomerize)
Tautomerize (ID: Tautomerize)
Aromatize (ID: Aromatize)
Add Explicit Hydrogens (ID: AddExplicitH)
Neutralize (ID: Neutralize)
Clean 2D (ID: Clean2D)


$$$$

  Mrv1551102232211292D          

 67 71  0  0  0  0            999 V2000
    7.1740   -2.8259    0.0000 O   0  0  0  0  0  0  0  0  0  0  0  0
    7.1740   -3.6509    0.0000 C   0  0  0  0  0  0  0  0  0  0  0  0
    6.4595   -4.0634    0.0000 C   0  0  0  0  0  0  0  0  0  0  0  0
    5.7450   -3.6509    0.0000 C   0  0  0  0  0  0  0  0  0  0  0  0
    5.0306   -4.0634    0.0000 C   0  0  0  0  0  0  0  0  0  0  0  0
    4.3161   -3.6509    0.0000 C   0  0  0  0  0  0  0  0  0  0  0  0
    3.6016   -4.0634    0.0000 C   0  0  0  0  0  0  0  0  0  0  0  0
    2.8872   -3.6509    0.0000 C   0  0  0  0  0  0  0  0  0  0  0  0
    2.1727   -4.0634    0.0000 N   0  0  0  0  0  0  0  0  0  0  0  0
    2.0864   -4.8838    0.0000 C   0  0  0  0  0  0  0  0  0  0  0  0
    1.2795   -5.0554    0.0000 C   0  0  0  0  0  0  0  0  0  0  0  0
    0.9439   -5.8090    0.0000 C   0  0  0  0  0  0  0  0  0  0  0  0
    1.4288   -6.4765    0.0000 C   0  0  0  0  0  0  0  0  0  0  0  0
    1.0933   -7.2301    0.0000 C   0  0  0  0  0  0  0  0  0  0  0  0
    0.2728   -7.3164    0.0000 C   0  0  0  0  0  0  0  0  0  0  0  0
   -0.0628   -8.0701    0.0000 N   0  0  0  0  0  0  0  0  0  0  0  0
   -0.8832   -8.1563    0.0000 C   0  0  0  0  0  0  0  0  0  0  0  0
   -1.3682   -7.4889    0.0000 N   0  0  0  0  0  0  0  0  0  0  0  0
   -1.0326   -6.7352    0.0000 C   0  0  0  0  0  0  0  0  0  0  0  0
   -1.5175   -6.0677    0.0000 N   0  0  0  0  0  0  0  0  0  0  0  0
   -2.3380   -6.1540    0.0000 C   0  0  0  0  0  0  0  0  0  0  0  0
   -2.6736   -6.9077    0.0000 C   0  0  0  0  0  0  0  0  0  0  0  0
   -3.4940   -6.9939    0.0000 C   0  0  0  0  0  0  0  0  0  0  0  0
   -3.9790   -6.3264    0.0000 C   0  0  0  0  0  0  0  0  0  0  0  0
   -4.7994   -6.4127    0.0000 O   0  0  0  0  0  0  0  0  0  0  0  0
   -5.2844   -5.7452    0.0000 C   0  0  0  0  0  0  0  0  0  0  0  0
   -6.1049   -5.8315    0.0000 C   0  0  0  0  0  0  0  0  0  0  0  0
   -6.5174   -6.5460    0.0000 N   0  0  0  0  0  0  0  0  0  0  0  0
   -7.3243   -6.3744    0.0000 C   0  0  0  0  0  0  0  0  0  0  0  0
   -7.4106   -5.5539    0.0000 C   0  0  0  0  0  0  0  0  0  0  0  0
   -6.6569   -5.2184    0.0000 S   0  0  0  0  0  0  0  0  0  0  0  0
   -3.6434   -5.5728    0.0000 C   0  0  0  0  0  0  0  0  0  0  0  0
   -4.1283   -4.9053    0.0000 Cl  0  0  0  0  0  0  0  0  0  0  0  0
   -2.8229   -5.4865    0.0000 C   0  0  0  0  0  0  0  0  0  0  0  0
   -0.2121   -6.6489    0.0000 C   0  0  0  0  0  0  0  0  0  0  0  0
    0.1234   -5.8953    0.0000 C   0  0  0  0  0  0  0  0  0  0  0  0
    0.8670   -4.3409    0.0000 N   0  0  0  0  0  0  0  0  0  0  0  0
    1.4190   -3.7278    0.0000 N   0  0  0  0  0  0  0  0  0  0  0  0
    7.8884   -4.0634    0.0000 N   0  0  0  0  0  0  0  0  0  0  0  0
    8.6029   -3.6509    0.0000 O   0  0  0  0  0  0  0  0  0  0  0  0
    6.0892   -4.8006    0.0000 H   0  0  0  0  0  0  0  0  0  0  0  0
    6.8298   -4.8006    0.0000 H   0  0  0  0  0  0  0  0  0  0  0  0
    6.1153   -2.9136    0.0000 H   0  0  0  0  0  0  0  0  0  0  0  0
    5.3748   -2.9136    0.0000 H   0  0  0  0  0  0  0  0  0  0  0  0
    4.6603   -4.8006    0.0000 H   0  0  0  0  0  0  0  0  0  0  0  0
    5.4008   -4.8006    0.0000 H   0  0  0  0  0  0  0  0  0  0  0  0
    4.6864   -2.9136    0.0000 H   0  0  0  0  0  0  0  0  0  0  0  0
    3.9458   -2.9136    0.0000 H   0  0  0  0  0  0  0  0  0  0  0  0
    3.2314   -4.8006    0.0000 H   0  0  0  0  0  0  0  0  0  0  0  0
    3.9719   -4.8006    0.0000 H   0  0  0  0  0  0  0  0  0  0  0  0
    3.2574   -2.9136    0.0000 H   0  0  0  0  0  0  0  0  0  0  0  0
    2.5169   -2.9136    0.0000 H   0  0  0  0  0  0  0  0  0  0  0  0
    2.6995   -5.4359    0.0000 H   0  0  0  0  0  0  0  0  0  0  0  0
    2.2493   -6.3902    0.0000 H   0  0  0  0  0  0  0  0  0  0  0  0
    1.5782   -7.8976    0.0000 H   0  0  0  0  0  0  0  0  0  0  0  0
   -1.2188   -8.9100    0.0000 H   0  0  0  0  0  0  0  0  0  0  0  0
   -1.1820   -5.3141    0.0000 H   0  0  0  0  0  0  0  0  0  0  0  0
   -2.1886   -7.5751    0.0000 H   0  0  0  0  0  0  0  0  0  0  0  0
   -3.8296   -7.7476    0.0000 H   0  0  0  0  0  0  0  0  0  0  0  0
   -4.6463   -5.2223    0.0000 H   0  0  0  0  0  0  0  0  0  0  0  0
   -5.3228   -4.9211    0.0000 H   0  0  0  0  0  0  0  0  0  0  0  0
   -7.9374   -6.9265    0.0000 H   0  0  0  0  0  0  0  0  0  0  0  0
   -8.1250   -5.1414    0.0000 H   0  0  0  0  0  0  0  0  0  0  0  0
   -2.4874   -4.7329    0.0000 H   0  0  0  0  0  0  0  0  0  0  0  0
   -0.3615   -5.2278    0.0000 H   0  0  0  0  0  0  0  0  0  0  0  0
    7.8884   -4.8884    0.0000 H   0  0  0  0  0  0  0  0  0  0  0  0
    9.3174   -4.0634    0.0000 H   0  0  0  0  0  0  0  0  0  0  0  0
  1  2  2  0  0  0  0
  2  3  1  0  0  0  0
  3  4  1  0  0  0  0
  4  5  1  0  0  0  0
  5  6  1  0  0  0  0
  6  7  1  0  0  0  0
  7  8  1  0  0  0  0
  8  9  1  0  0  0  0
  9 10  4  0  0  0  0
 10 11  4  0  0  0  0
 11 12  1  0  0  0  0
 12 13  4  0  0  0  0
 13 14  4  0  0  0  0
 14 15  4  0  0  0  0
 15 16  4  0  0  0  0
 16 17  4  0  0  0  0
 17 18  4  0  0  0  0
 18 19  4  0  0  0  0
 19 20  1  0  0  0  0
 20 21  1  0  0  0  0
 21 22  4  0  0  0  0
 22 23  4  0  0  0  0
 23 24  4  0  0  0  0
 24 25  1  0  0  0  0
 25 26  1  0  0  0  0
 26 27  1  0  0  0  0
 27 28  4  0  0  0  0
 28 29  4  0  0  0  0
 29 30  4  0  0  0  0
 30 31  4  0  0  0  0
 27 31  4  0  0  0  0
 24 32  4  0  0  0  0
 32 33  1  0  0  0  0
 32 34  4  0  0  0  0
 21 34  4  0  0  0  0
 19 35  4  0  0  0  0
 15 35  4  0  0  0  0
 35 36  4  0  0  0  0
 12 36  4  0  0  0  0
 11 37  4  0  0  0  0
 37 38  4  0  0  0  0
  9 38  4  0  0  0  0
  2 39  1  0  0  0  0
 39 40  1  0  0  0  0
  3 41  1  0  0  0  0
  3 42  1  0  0  0  0
  4 43  1  0  0  0  0
  4 44  1  0  0  0  0
  5 45  1  0  0  0  0
  5 46  1  0  0  0  0
  6 47  1  0  0  0  0
  6 48  1  0  0  0  0
  7 49  1  0  0  0  0
  7 50  1  0  0  0  0
  8 51  1  0  0  0  0
  8 52  1  0  0  0  0
 10 53  1  0  0  0  0
 13 54  1  0  0  0  0
 14 55  1  0  0  0  0
 17 56  1  0  0  0  0
 20 57  1  0  0  0  0
 22 58  1  0  0  0  0
 23 59  1  0  0  0  0
 26 60  1  0  0  0  0
 26 61  1  0  0  0  0
 29 62  1  0  0  0  0
 30 63  1  0  0  0  0
 34 64  1  0  0  0  0
 36 65  1  0  0  0  0
 39 66  1  0  0  0  0
 40 67  1  0  0  0  0
M  END
>  <Molecule ChEMBL ID>
CHEMBL3902778

>  <Compound Key>
9h

>  <Active>
0

>  <StandardizerResult>
Dearomatize (ID: Dearomatize)
Clear Stereo (ID: ClearStereo)
Wedge Clean (ID: WedgeClean)
Mesomerize (ID: Mesomerize)
Tautomerize (ID: Tautomerize)
Aromatize (ID: Aromatize)
Add Explicit Hydrogens (ID: AddExplicitH)
Neutralize (ID: Neutralize)
Clean 2D (ID: Clean2D)


$$$$

  Mrv1551102232211292D          

 73 77  0  0  0  0            999 V2000
   -5.4586   -3.1011    0.0000 C   0  0  0  0  0  0  0  0  0  0  0  0
   -5.7941   -2.3474    0.0000 C   0  0  0  0  0  0  0  0  0  0  0  0
   -6.6146   -2.2612    0.0000 C   0  0  0  0  0  0  0  0  0  0  0  0
   -6.9502   -1.5075    0.0000 C   0  0  0  0  0  0  0  0  0  0  0  0
   -6.4653   -0.8401    0.0000 C   0  0  0  0  0  0  0  0  0  0  0  0
   -6.8008   -0.0864    0.0000 O   0  0  0  0  0  0  0  0  0  0  0  0
   -6.3159    0.5811    0.0000 C   0  0  0  0  0  0  0  0  0  0  0  0
   -6.6515    1.3347    0.0000 C   0  0  0  0  0  0  0  0  0  0  0  0
   -6.1665    2.0022    0.0000 C   0  0  0  0  0  0  0  0  0  0  0  0
   -5.3461    1.9159    0.0000 C   0  0  0  0  0  0  0  0  0  0  0  0
   -4.8611    2.5834    0.0000 N   0  0  0  0  0  0  0  0  0  0  0  0
   -5.1967    3.3371    0.0000 C   0  0  0  0  0  0  0  0  0  0  0  0
   -6.0172    3.4233    0.0000 N   0  0  0  0  0  0  0  0  0  0  0  0
   -6.3527    4.1770    0.0000 C   0  0  0  0  0  0  0  0  0  0  0  0
   -5.8678    4.8444    0.0000 N   0  0  0  0  0  0  0  0  0  0  0  0
   -5.0473    4.7582    0.0000 C   0  0  0  0  0  0  0  0  0  0  0  0
   -4.5624    5.4256    0.0000 C   0  0  0  0  0  0  0  0  0  0  0  0
   -3.7419    5.3394    0.0000 C   0  0  0  0  0  0  0  0  0  0  0  0
   -3.4064    4.5857    0.0000 C   0  0  0  0  0  0  0  0  0  0  0  0
   -2.5859    4.4995    0.0000 C   0  0  0  0  0  0  0  0  0  0  0  0
   -2.0338    5.1126    0.0000 C   0  0  0  0  0  0  0  0  0  0  0  0
   -1.2802    4.7770    0.0000 N   0  0  0  0  0  0  0  0  0  0  0  0
   -0.5657    5.1895    0.0000 C   0  0  0  0  0  0  0  0  0  0  0  0
    0.1488    4.7770    0.0000 C   0  0  0  0  0  0  0  0  0  0  0  0
    0.8632    5.1895    0.0000 C   0  0  0  0  0  0  0  0  0  0  0  0
    1.5777    4.7770    0.0000 C   0  0  0  0  0  0  0  0  0  0  0  0
    2.2922    5.1895    0.0000 C   0  0  0  0  0  0  0  0  0  0  0  0
    3.0067    4.7770    0.0000 C   0  0  0  0  0  0  0  0  0  0  0  0
    3.7211    5.1895    0.0000 C   0  0  0  0  0  0  0  0  0  0  0  0
    3.7211    6.0145    0.0000 O   0  0  0  0  0  0  0  0  0  0  0  0
    4.4356    4.7770    0.0000 N   0  0  0  0  0  0  0  0  0  0  0  0
    5.1501    5.1895    0.0000 O   0  0  0  0  0  0  0  0  0  0  0  0
   -1.3664    3.9565    0.0000 N   0  0  0  0  0  0  0  0  0  0  0  0
   -2.1734    3.7850    0.0000 N   0  0  0  0  0  0  0  0  0  0  0  0
   -3.8913    3.9183    0.0000 C   0  0  0  0  0  0  0  0  0  0  0  0
   -4.7118    4.0045    0.0000 C   0  0  0  0  0  0  0  0  0  0  0  0
   -5.0105    1.1623    0.0000 C   0  0  0  0  0  0  0  0  0  0  0  0
   -5.4954    0.4948    0.0000 C   0  0  0  0  0  0  0  0  0  0  0  0
   -5.1599   -0.2589    0.0000 C   0  0  0  0  0  0  0  0  0  0  0  0
   -5.6448   -0.9263    0.0000 C   0  0  0  0  0  0  0  0  0  0  0  0
   -5.3092   -1.6800    0.0000 N   0  0  0  0  0  0  0  0  0  0  0  0
   -6.2123   -3.4366    0.0000 H   0  0  0  0  0  0  0  0  0  0  0  0
   -5.1230   -3.8548    0.0000 H   0  0  0  0  0  0  0  0  0  0  0  0
   -4.7049   -2.7655    0.0000 H   0  0  0  0  0  0  0  0  0  0  0  0
   -7.0996   -2.9286    0.0000 H   0  0  0  0  0  0  0  0  0  0  0  0
   -7.7707   -1.4213    0.0000 H   0  0  0  0  0  0  0  0  0  0  0  0
   -7.4719    1.4210    0.0000 H   0  0  0  0  0  0  0  0  0  0  0  0
   -6.5021    2.7558    0.0000 H   0  0  0  0  0  0  0  0  0  0  0  0
   -4.0406    2.4971    0.0000 H   0  0  0  0  0  0  0  0  0  0  0  0
   -7.1732    4.2632    0.0000 H   0  0  0  0  0  0  0  0  0  0  0  0
   -4.8980    6.1793    0.0000 H   0  0  0  0  0  0  0  0  0  0  0  0
   -3.2570    6.0068    0.0000 H   0  0  0  0  0  0  0  0  0  0  0  0
   -2.2054    5.9195    0.0000 H   0  0  0  0  0  0  0  0  0  0  0  0
   -0.1954    5.9267    0.0000 H   0  0  0  0  0  0  0  0  0  0  0  0
   -0.9360    5.9267    0.0000 H   0  0  0  0  0  0  0  0  0  0  0  0
   -0.2215    4.0397    0.0000 H   0  0  0  0  0  0  0  0  0  0  0  0
    0.5190    4.0397    0.0000 H   0  0  0  0  0  0  0  0  0  0  0  0
    1.2335    5.9267    0.0000 H   0  0  0  0  0  0  0  0  0  0  0  0
    0.4930    5.9267    0.0000 H   0  0  0  0  0  0  0  0  0  0  0  0
    1.2075    4.0397    0.0000 H   0  0  0  0  0  0  0  0  0  0  0  0
    1.9480    4.0397    0.0000 H   0  0  0  0  0  0  0  0  0  0  0  0
    2.6624    5.9267    0.0000 H   0  0  0  0  0  0  0  0  0  0  0  0
    1.9219    5.9267    0.0000 H   0  0  0  0  0  0  0  0  0  0  0  0
    2.6364    4.0397    0.0000 H   0  0  0  0  0  0  0  0  0  0  0  0
    3.3769    4.0397    0.0000 H   0  0  0  0  0  0  0  0  0  0  0  0
    4.4356    3.9520    0.0000 H   0  0  0  0  0  0  0  0  0  0  0  0
    5.8645    4.7770    0.0000 H   0  0  0  0  0  0  0  0  0  0  0  0
   -3.5557    3.1646    0.0000 H   0  0  0  0  0  0  0  0  0  0  0  0
   -4.1900    1.0760    0.0000 H   0  0  0  0  0  0  0  0  0  0  0  0
   -4.8243   -1.0125    0.0000 H   0  0  0  0  0  0  0  0  0  0  0  0
   -4.3394   -0.3451    0.0000 H   0  0  0  0  0  0  0  0  0  0  0  0
   -4.6749    0.4086    0.0000 H   0  0  0  0  0  0  0  0  0  0  0  0
   -6.1297   -1.5937    0.0000 H   0  0  0  0  0  0  0  0  0  0  0  0
  1  2  1  0  0  0  0
  2  3  4  0  0  0  0
  3  4  4  0  0  0  0
  4  5  4  0  0  0  0
  5  6  1  0  0  0  0
  6  7  1  0  0  0  0
  7  8  4  0  0  0  0
  8  9  4  0  0  0  0
  9 10  4  0  0  0  0
 10 11  1  0  0  0  0
 11 12  1  0  0  0  0
 12 13  4  0  0  0  0
 13 14  4  0  0  0  0
 14 15  4  0  0  0  0
 15 16  4  0  0  0  0
 16 17  4  0  0  0  0
 17 18  4  0  0  0  0
 18 19  4  0  0  0  0
 19 20  1  0  0  0  0
 20 21  4  0  0  0  0
 21 22  4  0  0  0  0
 22 23  1  0  0  0  0
 23 24  1  0  0  0  0
 24 25  1  0  0  0  0
 25 26  1  0  0  0  0
 26 27  1  0  0  0  0
 27 28  1  0  0  0  0
 28 29  1  0  0  0  0
 29 30  2  0  0  0  0
 29 31  1  0  0  0  0
 31 32  1  0  0  0  0
 22 33  4  0  0  0  0
 33 34  4  0  0  0  0
 20 34  4  0  0  0  0
 19 35  4  0  0  0  0
 35 36  4  0  0  0  0
 12 36  4  0  0  0  0
 16 36  4  0  0  0  0
 10 37  4  0  0  0  0
 37 38  4  0  0  0  0
  7 38  4  0  0  0  0
 38 39  1  0  0  0  0
  5 40  4  0  0  0  0
 40 41  4  0  0  0  0
  2 41  4  0  0  0  0
  1 42  1  0  0  0  0
  1 43  1  0  0  0  0
  1 44  1  0  0  0  0
  3 45  1  0  0  0  0
  4 46  1  0  0  0  0
  8 47  1  0  0  0  0
  9 48  1  0  0  0  0
 11 49  1  0  0  0  0
 14 50  1  0  0  0  0
 17 51  1  0  0  0  0
 18 52  1  0  0  0  0
 21 53  1  0  0  0  0
 23 54  1  0  0  0  0
 23 55  1  0  0  0  0
 24 56  1  0  0  0  0
 24 57  1  0  0  0  0
 25 58  1  0  0  0  0
 25 59  1  0  0  0  0
 26 60  1  0  0  0  0
 26 61  1  0  0  0  0
 27 62  1  0  0  0  0
 27 63  1  0  0  0  0
 28 64  1  0  0  0  0
 28 65  1  0  0  0  0
 31 66  1  0  0  0  0
 32 67  1  0  0  0  0
 35 68  1  0  0  0  0
 37 69  1  0  0  0  0
 39 70  1  0  0  0  0
 39 71  1  0  0  0  0
 39 72  1  0  0  0  0
 40 73  1  0  0  0  0
M  END
>  <Molecule ChEMBL ID>
CHEMBL3893822

>  <Compound Key>
9j

>  <Active>
0

>  <StandardizerResult>
Dearomatize (ID: Dearomatize)
Clear Stereo (ID: ClearStereo)
Wedge Clean (ID: WedgeClean)
Mesomerize (ID: Mesomerize)
Tautomerize (ID: Tautomerize)
Aromatize (ID: Aromatize)
Add Explicit Hydrogens (ID: AddExplicitH)
Neutralize (ID: Neutralize)
Clean 2D (ID: Clean2D)


$$$$

  Mrv1551102232211292D          

 64 68  0  0  0  0            999 V2000
    7.6587   -2.1579    0.0000 O   0  0  0  0  0  0  0  0  0  0  0  0
    7.6587   -2.9829    0.0000 C   0  0  0  0  0  0  0  0  0  0  0  0
    6.9443   -3.3954    0.0000 C   0  0  0  0  0  0  0  0  0  0  0  0
    6.2298   -2.9829    0.0000 C   0  0  0  0  0  0  0  0  0  0  0  0
    5.5153   -3.3954    0.0000 C   0  0  0  0  0  0  0  0  0  0  0  0
    4.8008   -2.9829    0.0000 C   0  0  0  0  0  0  0  0  0  0  0  0
    4.0864   -3.3954    0.0000 C   0  0  0  0  0  0  0  0  0  0  0  0
    3.3719   -2.9829    0.0000 N   0  0  0  0  0  0  0  0  0  0  0  0
    2.6182   -3.3185    0.0000 C   0  0  0  0  0  0  0  0  0  0  0  0
    2.0662   -2.7054    0.0000 C   0  0  0  0  0  0  0  0  0  0  0  0
    1.2457   -2.7916    0.0000 C   0  0  0  0  0  0  0  0  0  0  0  0
    0.9102   -3.5453    0.0000 C   0  0  0  0  0  0  0  0  0  0  0  0
    0.0897   -3.6316    0.0000 C   0  0  0  0  0  0  0  0  0  0  0  0
   -0.3952   -2.9641    0.0000 C   0  0  0  0  0  0  0  0  0  0  0  0
   -1.2157   -3.0504    0.0000 N   0  0  0  0  0  0  0  0  0  0  0  0
   -1.7006   -2.3829    0.0000 C   0  0  0  0  0  0  0  0  0  0  0  0
   -1.3651   -1.6292    0.0000 N   0  0  0  0  0  0  0  0  0  0  0  0
   -0.5446   -1.5430    0.0000 C   0  0  0  0  0  0  0  0  0  0  0  0
   -0.2091   -0.7893    0.0000 N   0  0  0  0  0  0  0  0  0  0  0  0
   -0.6940   -0.1219    0.0000 C   0  0  0  0  0  0  0  0  0  0  0  0
   -1.5145   -0.2081    0.0000 C   0  0  0  0  0  0  0  0  0  0  0  0
   -1.9994    0.4593    0.0000 C   0  0  0  0  0  0  0  0  0  0  0  0
   -1.6638    1.2130    0.0000 C   0  0  0  0  0  0  0  0  0  0  0  0
   -2.1487    1.8804    0.0000 O   0  0  0  0  0  0  0  0  0  0  0  0
   -1.8132    2.6341    0.0000 C   0  0  0  0  0  0  0  0  0  0  0  0
   -2.2981    3.3015    0.0000 C   0  0  0  0  0  0  0  0  0  0  0  0
   -3.1231    3.3015    0.0000 N   0  0  0  0  0  0  0  0  0  0  0  0
   -3.3780    4.0862    0.0000 C   0  0  0  0  0  0  0  0  0  0  0  0
   -2.7106    4.5711    0.0000 C   0  0  0  0  0  0  0  0  0  0  0  0
   -2.0432    4.0862    0.0000 S   0  0  0  0  0  0  0  0  0  0  0  0
   -0.8433    1.2992    0.0000 C   0  0  0  0  0  0  0  0  0  0  0  0
   -0.5078    2.0529    0.0000 Cl  0  0  0  0  0  0  0  0  0  0  0  0
   -0.3584    0.6318    0.0000 C   0  0  0  0  0  0  0  0  0  0  0  0
   -0.0597   -2.2104    0.0000 C   0  0  0  0  0  0  0  0  0  0  0  0
    0.7608   -2.1242    0.0000 C   0  0  0  0  0  0  0  0  0  0  0  0
    2.4787   -1.9909    0.0000 N   0  0  0  0  0  0  0  0  0  0  0  0
    3.2857   -2.1625    0.0000 N   0  0  0  0  0  0  0  0  0  0  0  0
    8.3732   -3.3954    0.0000 N   0  0  0  0  0  0  0  0  0  0  0  0
    9.0877   -2.9829    0.0000 O   0  0  0  0  0  0  0  0  0  0  0  0
    6.5740   -4.1327    0.0000 H   0  0  0  0  0  0  0  0  0  0  0  0
    7.3145   -4.1327    0.0000 H   0  0  0  0  0  0  0  0  0  0  0  0
    6.6000   -2.2457    0.0000 H   0  0  0  0  0  0  0  0  0  0  0  0
    5.8595   -2.2457    0.0000 H   0  0  0  0  0  0  0  0  0  0  0  0
    5.1451   -4.1327    0.0000 H   0  0  0  0  0  0  0  0  0  0  0  0
    5.8856   -4.1327    0.0000 H   0  0  0  0  0  0  0  0  0  0  0  0
    5.1711   -2.2457    0.0000 H   0  0  0  0  0  0  0  0  0  0  0  0
    4.4306   -2.2457    0.0000 H   0  0  0  0  0  0  0  0  0  0  0  0
    3.7161   -4.1327    0.0000 H   0  0  0  0  0  0  0  0  0  0  0  0
    4.4566   -4.1327    0.0000 H   0  0  0  0  0  0  0  0  0  0  0  0
    2.4467   -4.1255    0.0000 H   0  0  0  0  0  0  0  0  0  0  0  0
    1.3951   -4.2128    0.0000 H   0  0  0  0  0  0  0  0  0  0  0  0
   -0.2459   -4.3852    0.0000 H   0  0  0  0  0  0  0  0  0  0  0  0
   -2.5211   -2.4691    0.0000 H   0  0  0  0  0  0  0  0  0  0  0  0
    0.6114   -0.7031    0.0000 H   0  0  0  0  0  0  0  0  0  0  0  0
   -1.8500   -0.9618    0.0000 H   0  0  0  0  0  0  0  0  0  0  0  0
   -2.8199    0.3731    0.0000 H   0  0  0  0  0  0  0  0  0  0  0  0
   -1.0413    2.3429    0.0000 H   0  0  0  0  0  0  0  0  0  0  0  0
   -1.1187    3.0794    0.0000 H   0  0  0  0  0  0  0  0  0  0  0  0
   -4.1627    4.3411    0.0000 H   0  0  0  0  0  0  0  0  0  0  0  0
   -2.7106    5.3961    0.0000 H   0  0  0  0  0  0  0  0  0  0  0  0
    0.4621    0.7180    0.0000 H   0  0  0  0  0  0  0  0  0  0  0  0
    1.0964   -1.3705    0.0000 H   0  0  0  0  0  0  0  0  0  0  0  0
    8.3732   -4.2204    0.0000 H   0  0  0  0  0  0  0  0  0  0  0  0
    9.8021   -3.3954    0.0000 H   0  0  0  0  0  0  0  0  0  0  0  0
  1  2  2  0  0  0  0
  2  3  1  0  0  0  0
  3  4  1  0  0  0  0
  4  5  1  0  0  0  0
  5  6  1  0  0  0  0
  6  7  1  0  0  0  0
  7  8  1  0  0  0  0
  8  9  4  0  0  0  0
  9 10  4  0  0  0  0
 10 11  1  0  0  0  0
 11 12  4  0  0  0  0
 12 13  4  0  0  0  0
 13 14  4  0  0  0  0
 14 15  4  0  0  0  0
 15 16  4  0  0  0  0
 16 17  4  0  0  0  0
 17 18  4  0  0  0  0
 18 19  1  0  0  0  0
 19 20  1  0  0  0  0
 20 21  4  0  0  0  0
 21 22  4  0  0  0  0
 22 23  4  0  0  0  0
 23 24  1  0  0  0  0
 24 25  1  0  0  0  0
 25 26  1  0  0  0  0
 26 27  4  0  0  0  0
 27 28  4  0  0  0  0
 28 29  4  0  0  0  0
 29 30  4  0  0  0  0
 26 30  4  0  0  0  0
 23 31  4  0  0  0  0
 31 32  1  0  0  0  0
 31 33  4  0  0  0  0
 20 33  4  0  0  0  0
 18 34  4  0  0  0  0
 14 34  4  0  0  0  0
 34 35  4  0  0  0  0
 11 35  4  0  0  0  0
 10 36  4  0  0  0  0
 36 37  4  0  0  0  0
  8 37  4  0  0  0  0
  2 38  1  0  0  0  0
 38 39  1  0  0  0  0
  3 40  1  0  0  0  0
  3 41  1  0  0  0  0
  4 42  1  0  0  0  0
  4 43  1  0  0  0  0
  5 44  1  0  0  0  0
  5 45  1  0  0  0  0
  6 46  1  0  0  0  0
  6 47  1  0  0  0  0
  7 48  1  0  0  0  0
  7 49  1  0  0  0  0
  9 50  1  0  0  0  0
 12 51  1  0  0  0  0
 13 52  1  0  0  0  0
 16 53  1  0  0  0  0
 19 54  1  0  0  0  0
 21 55  1  0  0  0  0
 22 56  1  0  0  0  0
 25 57  1  0  0  0  0
 25 58  1  0  0  0  0
 28 59  1  0  0  0  0
 29 60  1  0  0  0  0
 33 61  1  0  0  0  0
 35 62  1  0  0  0  0
 38 63  1  0  0  0  0
 39 64  1  0  0  0  0
M  END
>  <Molecule ChEMBL ID>
CHEMBL3939771

>  <Compound Key>
9g

>  <Active>
0

>  <StandardizerResult>
Dearomatize (ID: Dearomatize)
Clear Stereo (ID: ClearStereo)
Wedge Clean (ID: WedgeClean)
Mesomerize (ID: Mesomerize)
Tautomerize (ID: Tautomerize)
Aromatize (ID: Aromatize)
Add Explicit Hydrogens (ID: AddExplicitH)
Neutralize (ID: Neutralize)
Clean 2D (ID: Clean2D)


$$$$

  Mrv1551102232211292D          

 72 76  0  0  0  0            999 V2000
   -7.8151    2.1635    0.0000 C   0  0  0  0  0  0  0  0  0  0  0  0
   -7.4795    1.4098    0.0000 O   0  0  0  0  0  0  0  0  0  0  0  0
   -6.6590    1.3236    0.0000 C   0  0  0  0  0  0  0  0  0  0  0  0
   -6.1741    1.9910    0.0000 C   0  0  0  0  0  0  0  0  0  0  0  0
   -5.3536    1.9048    0.0000 C   0  0  0  0  0  0  0  0  0  0  0  0
   -4.8687    2.5722    0.0000 N   0  0  0  0  0  0  0  0  0  0  0  0
   -5.2043    3.3259    0.0000 C   0  0  0  0  0  0  0  0  0  0  0  0
   -6.0247    3.4121    0.0000 N   0  0  0  0  0  0  0  0  0  0  0  0
   -6.3603    4.1658    0.0000 C   0  0  0  0  0  0  0  0  0  0  0  0
   -5.8754    4.8332    0.0000 N   0  0  0  0  0  0  0  0  0  0  0  0
   -5.0549    4.7470    0.0000 C   0  0  0  0  0  0  0  0  0  0  0  0
   -4.5700    5.4144    0.0000 C   0  0  0  0  0  0  0  0  0  0  0  0
   -3.7495    5.3282    0.0000 C   0  0  0  0  0  0  0  0  0  0  0  0
   -3.4139    4.5745    0.0000 C   0  0  0  0  0  0  0  0  0  0  0  0
   -2.5934    4.4883    0.0000 C   0  0  0  0  0  0  0  0  0  0  0  0
   -2.0414    5.1014    0.0000 C   0  0  0  0  0  0  0  0  0  0  0  0
   -1.2877    4.7658    0.0000 N   0  0  0  0  0  0  0  0  0  0  0  0
   -0.5733    5.1783    0.0000 C   0  0  0  0  0  0  0  0  0  0  0  0
    0.1412    4.7658    0.0000 C   0  0  0  0  0  0  0  0  0  0  0  0
    0.8557    5.1783    0.0000 C   0  0  0  0  0  0  0  0  0  0  0  0
    1.5701    4.7658    0.0000 C   0  0  0  0  0  0  0  0  0  0  0  0
    2.2846    5.1783    0.0000 C   0  0  0  0  0  0  0  0  0  0  0  0
    2.9991    4.7658    0.0000 C   0  0  0  0  0  0  0  0  0  0  0  0
    3.7136    5.1783    0.0000 C   0  0  0  0  0  0  0  0  0  0  0  0
    3.7136    6.0033    0.0000 O   0  0  0  0  0  0  0  0  0  0  0  0
    4.4280    4.7658    0.0000 N   0  0  0  0  0  0  0  0  0  0  0  0
    5.1425    5.1783    0.0000 O   0  0  0  0  0  0  0  0  0  0  0  0
   -1.3740    3.9453    0.0000 N   0  0  0  0  0  0  0  0  0  0  0  0
   -2.1809    3.7738    0.0000 N   0  0  0  0  0  0  0  0  0  0  0  0
   -3.8989    3.9071    0.0000 C   0  0  0  0  0  0  0  0  0  0  0  0
   -4.7193    3.9933    0.0000 C   0  0  0  0  0  0  0  0  0  0  0  0
   -5.0181    1.1511    0.0000 C   0  0  0  0  0  0  0  0  0  0  0  0
   -5.5030    0.4837    0.0000 C   0  0  0  0  0  0  0  0  0  0  0  0
   -6.3235    0.5699    0.0000 C   0  0  0  0  0  0  0  0  0  0  0  0
   -6.8084   -0.0975    0.0000 O   0  0  0  0  0  0  0  0  0  0  0  0
   -7.6289   -0.0113    0.0000 C   0  0  0  0  0  0  0  0  0  0  0  0
   -8.1138   -0.6788    0.0000 C   0  0  0  0  0  0  0  0  0  0  0  0
   -8.9343   -0.5925    0.0000 C   0  0  0  0  0  0  0  0  0  0  0  0
   -9.2698    0.1612    0.0000 C   0  0  0  0  0  0  0  0  0  0  0  0
   -8.7849    0.8286    0.0000 C   0  0  0  0  0  0  0  0  0  0  0  0
   -7.9644    0.7424    0.0000 C   0  0  0  0  0  0  0  0  0  0  0  0
   -7.0614    2.4990    0.0000 H   0  0  0  0  0  0  0  0  0  0  0  0
   -8.1506    2.9172    0.0000 H   0  0  0  0  0  0  0  0  0  0  0  0
   -8.5687    1.8279    0.0000 H   0  0  0  0  0  0  0  0  0  0  0  0
   -6.5097    2.7447    0.0000 H   0  0  0  0  0  0  0  0  0  0  0  0
   -4.0482    2.4860    0.0000 H   0  0  0  0  0  0  0  0  0  0  0  0
   -7.1808    4.2520    0.0000 H   0  0  0  0  0  0  0  0  0  0  0  0
   -4.9055    6.1681    0.0000 H   0  0  0  0  0  0  0  0  0  0  0  0
   -3.2646    5.9956    0.0000 H   0  0  0  0  0  0  0  0  0  0  0  0
   -2.2129    5.9084    0.0000 H   0  0  0  0  0  0  0  0  0  0  0  0
   -0.2030    5.9156    0.0000 H   0  0  0  0  0  0  0  0  0  0  0  0
   -0.9435    5.9156    0.0000 H   0  0  0  0  0  0  0  0  0  0  0  0
   -0.2291    4.0286    0.0000 H   0  0  0  0  0  0  0  0  0  0  0  0
    0.5115    4.0286    0.0000 H   0  0  0  0  0  0  0  0  0  0  0  0
    1.2259    5.9156    0.0000 H   0  0  0  0  0  0  0  0  0  0  0  0
    0.4854    5.9156    0.0000 H   0  0  0  0  0  0  0  0  0  0  0  0
    1.1999    4.0286    0.0000 H   0  0  0  0  0  0  0  0  0  0  0  0
    1.9404    4.0286    0.0000 H   0  0  0  0  0  0  0  0  0  0  0  0
    2.6549    5.9156    0.0000 H   0  0  0  0  0  0  0  0  0  0  0  0
    1.9144    5.9156    0.0000 H   0  0  0  0  0  0  0  0  0  0  0  0
    2.6288    4.0286    0.0000 H   0  0  0  0  0  0  0  0  0  0  0  0
    3.3693    4.0286    0.0000 H   0  0  0  0  0  0  0  0  0  0  0  0
    4.4280    3.9408    0.0000 H   0  0  0  0  0  0  0  0  0  0  0  0
    5.8570    4.7658    0.0000 H   0  0  0  0  0  0  0  0  0  0  0  0
   -3.5633    3.1534    0.0000 H   0  0  0  0  0  0  0  0  0  0  0  0
   -4.1976    1.0649    0.0000 H   0  0  0  0  0  0  0  0  0  0  0  0
   -5.1674   -0.2700    0.0000 H   0  0  0  0  0  0  0  0  0  0  0  0
   -7.7782   -1.4324    0.0000 H   0  0  0  0  0  0  0  0  0  0  0  0
   -9.4192   -1.2600    0.0000 H   0  0  0  0  0  0  0  0  0  0  0  0
  -10.0903    0.2474    0.0000 H   0  0  0  0  0  0  0  0  0  0  0  0
   -9.1205    1.5823    0.0000 H   0  0  0  0  0  0  0  0  0  0  0  0
   -7.1439    0.6561    0.0000 H   0  0  0  0  0  0  0  0  0  0  0  0
  1  2  1  0  0  0  0
  2  3  1  0  0  0  0
  3  4  4  0  0  0  0
  4  5  4  0  0  0  0
  5  6  1  0  0  0  0
  6  7  1  0  0  0  0
  7  8  4  0  0  0  0
  8  9  4  0  0  0  0
  9 10  4  0  0  0  0
 10 11  4  0  0  0  0
 11 12  4  0  0  0  0
 12 13  4  0  0  0  0
 13 14  4  0  0  0  0
 14 15  1  0  0  0  0
 15 16  4  0  0  0  0
 16 17  4  0  0  0  0
 17 18  1  0  0  0  0
 18 19  1  0  0  0  0
 19 20  1  0  0  0  0
 20 21  1  0  0  0  0
 21 22  1  0  0  0  0
 22 23  1  0  0  0  0
 23 24  1  0  0  0  0
 24 25  2  0  0  0  0
 24 26  1  0  0  0  0
 26 27  1  0  0  0  0
 17 28  4  0  0  0  0
 28 29  4  0  0  0  0
 15 29  4  0  0  0  0
 14 30  4  0  0  0  0
 30 31  4  0  0  0  0
  7 31  4  0  0  0  0
 11 31  4  0  0  0  0
  5 32  4  0  0  0  0
 32 33  4  0  0  0  0
 33 34  4  0  0  0  0
  3 34  4  0  0  0  0
 34 35  1  0  0  0  0
 35 36  1  0  0  0  0
 36 37  4  0  0  0  0
 37 38  4  0  0  0  0
 38 39  4  0  0  0  0
 39 40  4  0  0  0  0
 40 41  4  0  0  0  0
 36 41  4  0  0  0  0
  1 42  1  0  0  0  0
  1 43  1  0  0  0  0
  1 44  1  0  0  0  0
  4 45  1  0  0  0  0
  6 46  1  0  0  0  0
  9 47  1  0  0  0  0
 12 48  1  0  0  0  0
 13 49  1  0  0  0  0
 16 50  1  0  0  0  0
 18 51  1  0  0  0  0
 18 52  1  0  0  0  0
 19 53  1  0  0  0  0
 19 54  1  0  0  0  0
 20 55  1  0  0  0  0
 20 56  1  0  0  0  0
 21 57  1  0  0  0  0
 21 58  1  0  0  0  0
 22 59  1  0  0  0  0
 22 60  1  0  0  0  0
 23 61  1  0  0  0  0
 23 62  1  0  0  0  0
 26 63  1  0  0  0  0
 27 64  1  0  0  0  0
 30 65  1  0  0  0  0
 32 66  1  0  0  0  0
 33 67  1  0  0  0  0
 37 68  1  0  0  0  0
 38 69  1  0  0  0  0
 39 70  1  0  0  0  0
 40 71  1  0  0  0  0
 41 72  1  0  0  0  0
M  END
>  <Molecule ChEMBL ID>
CHEMBL3982710

>  <Compound Key>
9l

>  <Active>
0

>  <StandardizerResult>
Dearomatize (ID: Dearomatize)
Clear Stereo (ID: ClearStereo)
Wedge Clean (ID: WedgeClean)
Mesomerize (ID: Mesomerize)
Tautomerize (ID: Tautomerize)
Aromatize (ID: Aromatize)
Add Explicit Hydrogens (ID: AddExplicitH)
Neutralize (ID: Neutralize)
Clean 2D (ID: Clean2D)


$$$$

  Mrv1551102232211292D          

 65 66  0  0  0  0            999 V2000
   -5.3916    9.1204    0.0000 C   0  0  0  0  0  0  0  0  0  0  0  0
   -5.8765    8.4530    0.0000 C   0  0  0  0  0  0  0  0  0  0  0  0
   -5.5409    7.6993    0.0000 N   0  0  0  0  0  0  0  0  0  0  0  0
   -4.7205    7.6131    0.0000 C   0  0  0  0  0  0  0  0  0  0  0  0
   -4.3849    6.8594    0.0000 C   0  0  0  0  0  0  0  0  0  0  0  0
   -6.0259    7.0319    0.0000 C   0  0  0  0  0  0  0  0  0  0  0  0
   -5.6903    6.2782    0.0000 C   0  0  0  0  0  0  0  0  0  0  0  0
   -6.1752    5.6108    0.0000 N   0  0  0  0  0  0  0  0  0  0  0  0
   -5.8397    4.8571    0.0000 C   0  0  0  0  0  0  0  0  0  0  0  0
   -6.3246    4.1896    0.0000 O   0  0  0  0  0  0  0  0  0  0  0  0
   -5.0192    4.7708    0.0000 C   0  0  0  0  0  0  0  0  0  0  0  0
   -4.5343    5.4383    0.0000 C   0  0  0  0  0  0  0  0  0  0  0  0
   -3.7138    5.3521    0.0000 C   0  0  0  0  0  0  0  0  0  0  0  0
   -3.3782    4.5984    0.0000 C   0  0  0  0  0  0  0  0  0  0  0  0
   -2.5577    4.5121    0.0000 C   0  0  0  0  0  0  0  0  0  0  0  0
   -2.0057    5.1252    0.0000 C   0  0  0  0  0  0  0  0  0  0  0  0
   -1.2520    4.7897    0.0000 N   0  0  0  0  0  0  0  0  0  0  0  0
   -0.5376    5.2022    0.0000 C   0  0  0  0  0  0  0  0  0  0  0  0
    0.1769    4.7897    0.0000 C   0  0  0  0  0  0  0  0  0  0  0  0
    0.8914    5.2022    0.0000 C   0  0  0  0  0  0  0  0  0  0  0  0
    1.6059    4.7897    0.0000 C   0  0  0  0  0  0  0  0  0  0  0  0
    2.3203    5.2022    0.0000 C   0  0  0  0  0  0  0  0  0  0  0  0
    3.0348    4.7897    0.0000 C   0  0  0  0  0  0  0  0  0  0  0  0
    3.7493    5.2022    0.0000 C   0  0  0  0  0  0  0  0  0  0  0  0
    3.7493    6.0272    0.0000 O   0  0  0  0  0  0  0  0  0  0  0  0
    4.4637    4.7897    0.0000 N   0  0  0  0  0  0  0  0  0  0  0  0
    5.1782    5.2022    0.0000 O   0  0  0  0  0  0  0  0  0  0  0  0
   -1.3383    3.9692    0.0000 N   0  0  0  0  0  0  0  0  0  0  0  0
   -2.1452    3.7977    0.0000 N   0  0  0  0  0  0  0  0  0  0  0  0
   -3.8631    3.9309    0.0000 C   0  0  0  0  0  0  0  0  0  0  0  0
   -4.6836    4.0172    0.0000 C   0  0  0  0  0  0  0  0  0  0  0  0
   -4.7241    8.6355    0.0000 H   0  0  0  0  0  0  0  0  0  0  0  0
   -4.9066    9.7879    0.0000 H   0  0  0  0  0  0  0  0  0  0  0  0
   -6.0590    9.6053    0.0000 H   0  0  0  0  0  0  0  0  0  0  0  0
   -6.5710    8.8983    0.0000 H   0  0  0  0  0  0  0  0  0  0  0  0
   -6.6484    8.1618    0.0000 H   0  0  0  0  0  0  0  0  0  0  0  0
   -3.9876    7.9919    0.0000 H   0  0  0  0  0  0  0  0  0  0  0  0
   -4.5867    8.4272    0.0000 H   0  0  0  0  0  0  0  0  0  0  0  0
   -5.1386    6.5238    0.0000 H   0  0  0  0  0  0  0  0  0  0  0  0
   -4.0493    6.1057    0.0000 H   0  0  0  0  0  0  0  0  0  0  0  0
   -3.6312    7.1950    0.0000 H   0  0  0  0  0  0  0  0  0  0  0  0
   -6.7204    7.4772    0.0000 H   0  0  0  0  0  0  0  0  0  0  0  0
   -6.7978    6.7407    0.0000 H   0  0  0  0  0  0  0  0  0  0  0  0
   -5.1711    5.6371    0.0000 H   0  0  0  0  0  0  0  0  0  0  0  0
   -6.5108    6.3644    0.0000 H   0  0  0  0  0  0  0  0  0  0  0  0
   -6.9289    5.2752    0.0000 H   0  0  0  0  0  0  0  0  0  0  0  0
   -4.1987    4.6846    0.0000 H   0  0  0  0  0  0  0  0  0  0  0  0
   -2.9601    5.6876    0.0000 H   0  0  0  0  0  0  0  0  0  0  0  0
   -2.1772    5.9322    0.0000 H   0  0  0  0  0  0  0  0  0  0  0  0
   -0.1673    5.9394    0.0000 H   0  0  0  0  0  0  0  0  0  0  0  0
   -0.9078    5.9394    0.0000 H   0  0  0  0  0  0  0  0  0  0  0  0
   -0.1934    4.0524    0.0000 H   0  0  0  0  0  0  0  0  0  0  0  0
    0.5472    4.0524    0.0000 H   0  0  0  0  0  0  0  0  0  0  0  0
    1.2616    5.9394    0.0000 H   0  0  0  0  0  0  0  0  0  0  0  0
    0.5211    5.9394    0.0000 H   0  0  0  0  0  0  0  0  0  0  0  0
    1.2356    4.0524    0.0000 H   0  0  0  0  0  0  0  0  0  0  0  0
    1.9761    4.0524    0.0000 H   0  0  0  0  0  0  0  0  0  0  0  0
    2.6906    5.9394    0.0000 H   0  0  0  0  0  0  0  0  0  0  0  0
    1.9501    5.9394    0.0000 H   0  0  0  0  0  0  0  0  0  0  0  0
    2.6645    4.0524    0.0000 H   0  0  0  0  0  0  0  0  0  0  0  0
    3.4051    4.0524    0.0000 H   0  0  0  0  0  0  0  0  0  0  0  0
    4.4637    3.9647    0.0000 H   0  0  0  0  0  0  0  0  0  0  0  0
    5.8927    4.7897    0.0000 H   0  0  0  0  0  0  0  0  0  0  0  0
   -3.5276    3.1773    0.0000 H   0  0  0  0  0  0  0  0  0  0  0  0
   -5.1685    3.3497    0.0000 H   0  0  0  0  0  0  0  0  0  0  0  0
  1  2  1  0  0  0  0
  2  3  1  0  0  0  0
  3  4  1  0  0  0  0
  4  5  1  0  0  0  0
  3  6  1  0  0  0  0
  6  7  1  0  0  0  0
  7  8  1  0  0  0  0
  8  9  1  0  0  0  0
  9 10  2  0  0  0  0
  9 11  1  0  0  0  0
 11 12  4  0  0  0  0
 12 13  4  0  0  0  0
 13 14  4  0  0  0  0
 14 15  1  0  0  0  0
 15 16  4  0  0  0  0
 16 17  4  0  0  0  0
 17 18  1  0  0  0  0
 18 19  1  0  0  0  0
 19 20  1  0  0  0  0
 20 21  1  0  0  0  0
 21 22  1  0  0  0  0
 22 23  1  0  0  0  0
 23 24  1  0  0  0  0
 24 25  2  0  0  0  0
 24 26  1  0  0  0  0
 26 27  1  0  0  0  0
 17 28  4  0  0  0  0
 28 29  4  0  0  0  0
 15 29  4  0  0  0  0
 14 30  4  0  0  0  0
 30 31  4  0  0  0  0
 11 31  4  0  0  0  0
  1 32  1  0  0  0  0
  1 33  1  0  0  0  0
  1 34  1  0  0  0  0
  2 35  1  0  0  0  0
  2 36  1  0  0  0  0
  4 37  1  0  0  0  0
  4 38  1  0  0  0  0
  5 39  1  0  0  0  0
  5 40  1  0  0  0  0
  5 41  1  0  0  0  0
  6 42  1  0  0  0  0
  6 43  1  0  0  0  0
  7 44  1  0  0  0  0
  7 45  1  0  0  0  0
  8 46  1  0  0  0  0
 12 47  1  0  0  0  0
 13 48  1  0  0  0  0
 16 49  1  0  0  0  0
 18 50  1  0  0  0  0
 18 51  1  0  0  0  0
 19 52  1  0  0  0  0
 19 53  1  0  0  0  0
 20 54  1  0  0  0  0
 20 55  1  0  0  0  0
 21 56  1  0  0  0  0
 21 57  1  0  0  0  0
 22 58  1  0  0  0  0
 22 59  1  0  0  0  0
 23 60  1  0  0  0  0
 23 61  1  0  0  0  0
 26 62  1  0  0  0  0
 27 63  1  0  0  0  0
 30 64  1  0  0  0  0
 31 65  1  0  0  0  0
M  END
>  <Molecule ChEMBL ID>
CHEMBL4096623

>  <Compound Key>
10a

>  <Active>
0

>  <StandardizerResult>
Dearomatize (ID: Dearomatize)
Clear Stereo (ID: ClearStereo)
Wedge Clean (ID: WedgeClean)
Mesomerize (ID: Mesomerize)
Tautomerize (ID: Tautomerize)
Aromatize (ID: Aromatize)
Add Explicit Hydrogens (ID: AddExplicitH)
Neutralize (ID: Neutralize)
Clean 2D (ID: Clean2D)


$$$$

  Mrv1551102232211292D          

 64 68  0  0  0  0            999 V2000
   -4.9315   -7.8278    0.0000 O   0  0  0  0  0  0  0  0  0  0  0  0
   -4.2171   -7.4153    0.0000 C   0  0  0  0  0  0  0  0  0  0  0  0
   -3.5026   -7.8278    0.0000 N   0  0  0  0  0  0  0  0  0  0  0  0
   -3.5026   -8.6528    0.0000 O   0  0  0  0  0  0  0  0  0  0  0  0
   -4.2171   -6.5903    0.0000 C   0  0  0  0  0  0  0  0  0  0  0  0
   -4.9315   -6.1778    0.0000 C   0  0  0  0  0  0  0  0  0  0  0  0
   -4.9315   -5.3528    0.0000 C   0  0  0  0  0  0  0  0  0  0  0  0
   -4.2171   -4.9403    0.0000 C   0  0  0  0  0  0  0  0  0  0  0  0
   -4.2171   -4.1153    0.0000 C   0  0  0  0  0  0  0  0  0  0  0  0
   -3.5026   -3.7028    0.0000 N   0  0  0  0  0  0  0  0  0  0  0  0
   -3.5026   -2.8778    0.0000 C   0  0  0  0  0  0  0  0  0  0  0  0
   -2.7881   -2.4653    0.0000 C   0  0  0  0  0  0  0  0  0  0  0  0
   -2.0737   -2.8778    0.0000 N   0  0  0  0  0  0  0  0  0  0  0  0
   -1.3592   -2.4653    0.0000 C   0  0  0  0  0  0  0  0  0  0  0  0
   -1.3592   -1.6403    0.0000 O   0  0  0  0  0  0  0  0  0  0  0  0
   -0.6447   -2.8778    0.0000 C   0  0  0  0  0  0  0  0  0  0  0  0
    0.0698   -2.4653    0.0000 C   0  0  0  0  0  0  0  0  0  0  0  0
    0.7842   -2.8778    0.0000 C   0  0  0  0  0  0  0  0  0  0  0  0
    1.4987   -2.4653    0.0000 C   0  0  0  0  0  0  0  0  0  0  0  0
    1.4987   -1.6403    0.0000 C   0  0  0  0  0  0  0  0  0  0  0  0
    0.7842   -1.2278    0.0000 N   0  0  0  0  0  0  0  0  0  0  0  0
    0.7842   -0.4028    0.0000 N   0  0  0  0  0  0  0  0  0  0  0  0
    1.4987    0.0097    0.0000 C   0  0  0  0  0  0  0  0  0  0  0  0
    1.4987    0.8347    0.0000 O   0  0  0  0  0  0  0  0  0  0  0  0
    2.2132   -0.4028    0.0000 C   0  0  0  0  0  0  0  0  0  0  0  0
    2.9276    0.0097    0.0000 C   0  0  0  0  0  0  0  0  0  0  0  0
    3.6421   -0.4028    0.0000 C   0  0  0  0  0  0  0  0  0  0  0  0
    3.6421   -1.2278    0.0000 C   0  0  0  0  0  0  0  0  0  0  0  0
    2.9276   -1.6403    0.0000 C   0  0  0  0  0  0  0  0  0  0  0  0
    2.2132   -1.2278    0.0000 C   0  0  0  0  0  0  0  0  0  0  0  0
    0.7842   -3.7028    0.0000 C   0  0  0  0  0  0  0  0  0  0  0  0
    0.0698   -4.1153    0.0000 C   0  0  0  0  0  0  0  0  0  0  0  0
   -0.6447   -3.7028    0.0000 C   0  0  0  0  0  0  0  0  0  0  0  0
   -1.3592   -4.1153    0.0000 F   0  0  0  0  0  0  0  0  0  0  0  0
   -2.0737   -3.7028    0.0000 C   0  0  0  0  0  0  0  0  0  0  0  0
   -2.7881   -4.1153    0.0000 C   0  0  0  0  0  0  0  0  0  0  0  0
   -3.5026   -5.3528    0.0000 C   0  0  0  0  0  0  0  0  0  0  0  0
   -3.5026   -6.1778    0.0000 C   0  0  0  0  0  0  0  0  0  0  0  0
   -2.7881   -7.4153    0.0000 H   0  0  0  0  0  0  0  0  0  0  0  0
   -4.2171   -9.0653    0.0000 H   0  0  0  0  0  0  0  0  0  0  0  0
   -5.6460   -6.5903    0.0000 H   0  0  0  0  0  0  0  0  0  0  0  0
   -5.6460   -4.9403    0.0000 H   0  0  0  0  0  0  0  0  0  0  0  0
   -4.6704   -3.4260    0.0000 H   0  0  0  0  0  0  0  0  0  0  0  0
   -5.0407   -4.0673    0.0000 H   0  0  0  0  0  0  0  0  0  0  0  0
   -3.9559   -2.1885    0.0000 H   0  0  0  0  0  0  0  0  0  0  0  0
   -4.3262   -2.8298    0.0000 H   0  0  0  0  0  0  0  0  0  0  0  0
   -2.4179   -1.7280    0.0000 H   0  0  0  0  0  0  0  0  0  0  0  0
   -3.1584   -1.7280    0.0000 H   0  0  0  0  0  0  0  0  0  0  0  0
    0.0698   -1.6403    0.0000 H   0  0  0  0  0  0  0  0  0  0  0  0
    1.9520   -3.1546    0.0000 H   0  0  0  0  0  0  0  0  0  0  0  0
    2.3223   -2.5132    0.0000 H   0  0  0  0  0  0  0  0  0  0  0  0
    0.0698    0.0097    0.0000 H   0  0  0  0  0  0  0  0  0  0  0  0
    2.9276    0.8347    0.0000 H   0  0  0  0  0  0  0  0  0  0  0  0
    4.3566    0.0097    0.0000 H   0  0  0  0  0  0  0  0  0  0  0  0
    4.3566   -1.6403    0.0000 H   0  0  0  0  0  0  0  0  0  0  0  0
    2.9276   -2.4653    0.0000 H   0  0  0  0  0  0  0  0  0  0  0  0
    1.4987   -4.1153    0.0000 H   0  0  0  0  0  0  0  0  0  0  0  0
    0.0698   -4.9403    0.0000 H   0  0  0  0  0  0  0  0  0  0  0  0
   -2.0737   -4.5278    0.0000 H   0  0  0  0  0  0  0  0  0  0  0  0
   -2.7881   -3.2903    0.0000 H   0  0  0  0  0  0  0  0  0  0  0  0
   -3.4201   -4.6456    0.0000 H   0  0  0  0  0  0  0  0  0  0  0  0
   -2.9314   -4.9277    0.0000 H   0  0  0  0  0  0  0  0  0  0  0  0
   -2.7654   -5.7231    0.0000 H   0  0  0  0  0  0  0  0  0  0  0  0
   -3.0798   -6.8862    0.0000 H   0  0  0  0  0  0  0  0  0  0  0  0
  1  2  2  0  0  0  0
  2  3  1  0  0  0  0
  3  4  1  0  0  0  0
  2  5  1  0  0  0  0
  5  6  4  0  0  0  0
  6  7  4  0  0  0  0
  7  8  4  0  0  0  0
  8  9  1  0  0  0  0
  9 10  1  0  0  0  0
 10 11  1  0  0  0  0
 11 12  1  0  0  0  0
 12 13  1  0  0  0  0
 13 14  1  0  0  0  0
 14 15  2  0  0  0  0
 14 16  1  0  0  0  0
 16 17  4  0  0  0  0
 17 18  4  0  0  0  0
 18 19  1  0  0  0  0
 19 20  1  0  0  0  0
 20 21  2  0  0  0  0
 21 22  1  0  0  0  0
 22 23  1  0  0  0  0
 23 24  2  0  0  0  0
 23 25  1  0  0  0  0
 25 26  4  0  0  0  0
 26 27  4  0  0  0  0
 27 28  4  0  0  0  0
 28 29  4  0  0  0  0
 29 30  4  0  0  0  0
 20 30  1  0  0  0  0
 25 30  4  0  0  0  0
 18 31  4  0  0  0  0
 31 32  4  0  0  0  0
 32 33  4  0  0  0  0
 16 33  4  0  0  0  0
 33 34  1  0  0  0  0
 13 35  1  0  0  0  0
 35 36  1  0  0  0  0
 10 36  1  0  0  0  0
  8 37  4  0  0  0  0
 37 38  4  0  0  0  0
  5 38  4  0  0  0  0
  3 39  1  0  0  0  0
  4 40  1  0  0  0  0
  6 41  1  0  0  0  0
  7 42  1  0  0  0  0
  9 43  1  0  0  0  0
  9 44  1  0  0  0  0
 11 45  1  0  0  0  0
 11 46  1  0  0  0  0
 12 47  1  0  0  0  0
 12 48  1  0  0  0  0
 17 49  1  0  0  0  0
 19 50  1  0  0  0  0
 19 51  1  0  0  0  0
 22 52  1  0  0  0  0
 26 53  1  0  0  0  0
 27 54  1  0  0  0  0
 28 55  1  0  0  0  0
 29 56  1  0  0  0  0
 31 57  1  0  0  0  0
 32 58  1  0  0  0  0
 35 59  1  0  0  0  0
 35 60  1  0  0  0  0
 36 61  1  0  0  0  0
 36 62  1  0  0  0  0
 37 63  1  0  0  0  0
 38 64  1  0  0  0  0
M  END
>  <Molecule ChEMBL ID>
CHEMBL4097093

>  <Compound Key>
P4

>  <Active>
0

>  <StandardizerResult>
Dearomatize (ID: Dearomatize)
Clear Stereo (ID: ClearStereo)
Wedge Clean (ID: WedgeClean)
Mesomerize (ID: Mesomerize)
Tautomerize (ID: Tautomerize)
Aromatize (ID: Aromatize)
Add Explicit Hydrogens (ID: AddExplicitH)
Neutralize (ID: Neutralize)
Clean 2D (ID: Clean2D)


$$$$

  Mrv1551102232211292D          

 44 46  0  0  0  0            999 V2000
    2.8672   -4.9176    0.0000 C   0  0  0  0  0  0  0  0  0  0  0  0
    2.1528   -4.5051    0.0000 C   0  0  0  0  0  0  0  0  0  0  0  0
    1.4383   -4.9176    0.0000 N   0  0  0  0  0  0  0  0  0  0  0  0
    0.7238   -4.5051    0.0000 C   0  0  0  0  0  0  0  0  0  0  0  0
    0.7238   -3.6801    0.0000 C   0  0  0  0  0  0  0  0  0  0  0  0
    1.4383   -3.2676    0.0000 C   0  0  0  0  0  0  0  0  0  0  0  0
    1.4383   -2.4426    0.0000 N   0  0  0  0  0  0  0  0  0  0  0  0
    0.7238   -2.0301    0.0000 C   0  0  0  0  0  0  0  0  0  0  0  0
    2.1528   -2.0301    0.0000 C   0  0  0  0  0  0  0  0  0  0  0  0
    2.1528   -1.2051    0.0000 C   0  0  0  0  0  0  0  0  0  0  0  0
    2.8672   -0.7926    0.0000 C   0  0  0  0  0  0  0  0  0  0  0  0
    3.5817   -1.2051    0.0000 C   0  0  0  0  0  0  0  0  0  0  0  0
    4.2962   -0.7926    0.0000 O   0  0  0  0  0  0  0  0  0  0  0  0
    5.0107   -1.2051    0.0000 C   0  0  0  0  0  0  0  0  0  0  0  0
    5.7251   -0.7926    0.0000 C   0  0  0  0  0  0  0  0  0  0  0  0
    5.7251    0.0324    0.0000 O   0  0  0  0  0  0  0  0  0  0  0  0
    6.4396   -1.2051    0.0000 N   0  0  0  0  0  0  0  0  0  0  0  0
    7.1541   -0.7926    0.0000 O   0  0  0  0  0  0  0  0  0  0  0  0
    3.5817   -2.0301    0.0000 C   0  0  0  0  0  0  0  0  0  0  0  0
    2.8672   -2.4426    0.0000 C   0  0  0  0  0  0  0  0  0  0  0  0
    2.1528   -3.6801    0.0000 N   0  0  0  0  0  0  0  0  0  0  0  0
   -0.0608   -3.4252    0.0000 C   0  0  0  0  0  0  0  0  0  0  0  0
   -0.5457   -4.0926    0.0000 C   0  0  0  0  0  0  0  0  0  0  0  0
   -0.0608   -4.7601    0.0000 C   0  0  0  0  0  0  0  0  0  0  0  0
    2.4547   -5.6321    0.0000 H   0  0  0  0  0  0  0  0  0  0  0  0
    3.5817   -5.3301    0.0000 H   0  0  0  0  0  0  0  0  0  0  0  0
    3.2797   -4.2032    0.0000 H   0  0  0  0  0  0  0  0  0  0  0  0
    1.1363   -1.3157    0.0000 H   0  0  0  0  0  0  0  0  0  0  0  0
    0.0094   -1.6176    0.0000 H   0  0  0  0  0  0  0  0  0  0  0  0
    0.3113   -2.7446    0.0000 H   0  0  0  0  0  0  0  0  0  0  0  0
    1.4383   -0.7926    0.0000 H   0  0  0  0  0  0  0  0  0  0  0  0
    2.8672    0.0324    0.0000 H   0  0  0  0  0  0  0  0  0  0  0  0
    4.6404   -1.9424    0.0000 H   0  0  0  0  0  0  0  0  0  0  0  0
    5.3809   -1.9424    0.0000 H   0  0  0  0  0  0  0  0  0  0  0  0
    6.4396   -2.0301    0.0000 H   0  0  0  0  0  0  0  0  0  0  0  0
    7.8685   -1.2051    0.0000 H   0  0  0  0  0  0  0  0  0  0  0  0
    4.2962   -2.4426    0.0000 H   0  0  0  0  0  0  0  0  0  0  0  0
    2.8672   -3.2676    0.0000 H   0  0  0  0  0  0  0  0  0  0  0  0
   -0.4593   -2.7029    0.0000 H   0  0  0  0  0  0  0  0  0  0  0  0
   -0.8842   -3.3740    0.0000 H   0  0  0  0  0  0  0  0  0  0  0  0
   -1.3596   -4.2276    0.0000 H   0  0  0  0  0  0  0  0  0  0  0  0
   -1.0558   -4.7410    0.0000 H   0  0  0  0  0  0  0  0  0  0  0  0
   -0.6542   -5.3332    0.0000 H   0  0  0  0  0  0  0  0  0  0  0  0
    0.0825   -5.5725    0.0000 H   0  0  0  0  0  0  0  0  0  0  0  0
  1  2  1  0  0  0  0
  2  3  4  0  0  0  0
  3  4  4  0  0  0  0
  4  5  4  0  0  0  0
  5  6  4  0  0  0  0
  6  7  1  0  0  0  0
  7  8  1  0  0  0  0
  7  9  1  0  0  0  0
  9 10  4  0  0  0  0
 10 11  4  0  0  0  0
 11 12  4  0  0  0  0
 12 13  1  0  0  0  0
 13 14  1  0  0  0  0
 14 15  1  0  0  0  0
 15 16  2  0  0  0  0
 15 17  1  0  0  0  0
 17 18  1  0  0  0  0
 12 19  4  0  0  0  0
 19 20  4  0  0  0  0
  9 20  4  0  0  0  0
  6 21  4  0  0  0  0
  2 21  4  0  0  0  0
  5 22  1  0  0  0  0
 22 23  1  0  0  0  0
 23 24  1  0  0  0  0
  4 24  1  0  0  0  0
  1 25  1  0  0  0  0
  1 26  1  0  0  0  0
  1 27  1  0  0  0  0
  8 28  1  0  0  0  0
  8 29  1  0  0  0  0
  8 30  1  0  0  0  0
 10 31  1  0  0  0  0
 11 32  1  0  0  0  0
 14 33  1  0  0  0  0
 14 34  1  0  0  0  0
 17 35  1  0  0  0  0
 18 36  1  0  0  0  0
 19 37  1  0  0  0  0
 20 38  1  0  0  0  0
 22 39  1  0  0  0  0
 22 40  1  0  0  0  0
 23 41  1  0  0  0  0
 23 42  1  0  0  0  0
 24 43  1  0  0  0  0
 24 44  1  0  0  0  0
M  END
>  <Molecule ChEMBL ID>
CHEMBL3775581

>  <Compound Key>
16a

>  <Active>
0

>  <StandardizerResult>
Dearomatize (ID: Dearomatize)
Clear Stereo (ID: ClearStereo)
Wedge Clean (ID: WedgeClean)
Mesomerize (ID: Mesomerize)
Tautomerize (ID: Tautomerize)
Aromatize (ID: Aromatize)
Add Explicit Hydrogens (ID: AddExplicitH)
Neutralize (ID: Neutralize)
Clean 2D (ID: Clean2D)


$$$$

  Mrv1551102232211292D          

 44 45  0  0  0  0            999 V2000
   -4.2868   -5.7750    0.0000 O   0  0  0  0  0  0  0  0  0  0  0  0
   -4.2868   -4.9500    0.0000 C   0  0  0  0  0  0  0  0  0  0  0  0
   -3.5724   -4.5375    0.0000 C   0  0  0  0  0  0  0  0  0  0  0  0
   -3.5724   -3.7125    0.0000 C   0  0  0  0  0  0  0  0  0  0  0  0
   -2.8579   -3.3000    0.0000 C   0  0  0  0  0  0  0  0  0  0  0  0
   -2.8579   -2.4750    0.0000 C   0  0  0  0  0  0  0  0  0  0  0  0
   -2.1434   -2.0625    0.0000 C   0  0  0  0  0  0  0  0  0  0  0  0
   -1.4289   -2.4750    0.0000 C   0  0  0  0  0  0  0  0  0  0  0  0
   -0.7145   -2.0625    0.0000 C   0  0  0  0  0  0  0  0  0  0  0  0
    0.0000   -2.4750    0.0000 C   0  0  0  0  0  0  0  0  0  0  0  0
    0.7145   -2.0625    0.0000 N   0  0  0  0  0  0  0  0  0  0  0  0
    1.4289   -2.4750    0.0000 C   0  0  0  0  0  0  0  0  0  0  0  0
    1.4289   -3.3000    0.0000 O   0  0  0  0  0  0  0  0  0  0  0  0
    2.1434   -2.0625    0.0000 C   0  0  0  0  0  0  0  0  0  0  0  0
    2.1434   -1.2375    0.0000 C   0  0  0  0  0  0  0  0  0  0  0  0
    2.8579   -0.8250    0.0000 C   0  0  0  0  0  0  0  0  0  0  0  0
    2.8579    0.0000    0.0000 C   0  0  0  0  0  0  0  0  0  0  0  0
    2.8579    0.8250    0.0000 F   0  0  0  0  0  0  0  0  0  0  0  0
    2.0329    0.0000    0.0000 F   0  0  0  0  0  0  0  0  0  0  0  0
    3.6829    0.0000    0.0000 F   0  0  0  0  0  0  0  0  0  0  0  0
    3.5724   -1.2375    0.0000 C   0  0  0  0  0  0  0  0  0  0  0  0
    3.5724   -2.0625    0.0000 C   0  0  0  0  0  0  0  0  0  0  0  0
    2.8579   -2.4750    0.0000 C   0  0  0  0  0  0  0  0  0  0  0  0
    2.8579   -3.3000    0.0000 Cl  0  0  0  0  0  0  0  0  0  0  0  0
   -1.4289   -3.3000    0.0000 C   0  0  0  0  0  0  0  0  0  0  0  0
   -2.1434   -3.7125    0.0000 C   0  0  0  0  0  0  0  0  0  0  0  0
   -5.0013   -4.5375    0.0000 N   0  0  0  0  0  0  0  0  0  0  0  0
   -5.7158   -4.9500    0.0000 O   0  0  0  0  0  0  0  0  0  0  0  0
   -2.8579   -4.9500    0.0000 H   0  0  0  0  0  0  0  0  0  0  0  0
   -4.2868   -3.3000    0.0000 H   0  0  0  0  0  0  0  0  0  0  0  0
   -3.5724   -2.0625    0.0000 H   0  0  0  0  0  0  0  0  0  0  0  0
   -2.1434   -1.2375    0.0000 H   0  0  0  0  0  0  0  0  0  0  0  0
   -0.3442   -1.3253    0.0000 H   0  0  0  0  0  0  0  0  0  0  0  0
   -1.0847   -1.3253    0.0000 H   0  0  0  0  0  0  0  0  0  0  0  0
   -0.3703   -3.2122    0.0000 H   0  0  0  0  0  0  0  0  0  0  0  0
    0.3703   -3.2122    0.0000 H   0  0  0  0  0  0  0  0  0  0  0  0
    0.7145   -1.2375    0.0000 H   0  0  0  0  0  0  0  0  0  0  0  0
    1.4289   -0.8250    0.0000 H   0  0  0  0  0  0  0  0  0  0  0  0
    4.2868   -0.8250    0.0000 H   0  0  0  0  0  0  0  0  0  0  0  0
    4.2868   -2.4750    0.0000 H   0  0  0  0  0  0  0  0  0  0  0  0
   -0.7145   -3.7125    0.0000 H   0  0  0  0  0  0  0  0  0  0  0  0
   -2.1434   -4.5375    0.0000 H   0  0  0  0  0  0  0  0  0  0  0  0
   -5.0013   -3.7125    0.0000 H   0  0  0  0  0  0  0  0  0  0  0  0
   -6.4302   -4.5375    0.0000 H   0  0  0  0  0  0  0  0  0  0  0  0
  1  2  2  0  0  0  0
  3  2  1  4  0  0  0
  3  4  2  0  0  0  0
  4  5  1  0  0  0  0
  5  6  4  0  0  0  0
  6  7  4  0  0  0  0
  7  8  4  0  0  0  0
  8  9  1  0  0  0  0
  9 10  1  0  0  0  0
 10 11  1  0  0  0  0
 11 12  1  0  0  0  0
 12 13  2  0  0  0  0
 12 14  1  0  0  0  0
 14 15  4  0  0  0  0
 15 16  4  0  0  0  0
 16 17  1  0  0  0  0
 17 18  1  0  0  0  0
 17 19  1  0  0  0  0
 17 20  1  0  0  0  0
 16 21  4  0  0  0  0
 21 22  4  0  0  0  0
 22 23  4  0  0  0  0
 14 23  4  0  0  0  0
 23 24  1  0  0  0  0
  8 25  4  0  0  0  0
 25 26  4  0  0  0  0
  5 26  4  0  0  0  0
  2 27  1  0  0  0  0
 27 28  1  0  0  0  0
  3 29  1  0  0  0  0
  4 30  1  0  0  0  0
  6 31  1  0  0  0  0
  7 32  1  0  0  0  0
  9 33  1  0  0  0  0
  9 34  1  0  0  0  0
 10 35  1  0  0  0  0
 10 36  1  0  0  0  0
 11 37  1  0  0  0  0
 15 38  1  0  0  0  0
 21 39  1  0  0  0  0
 22 40  1  0  0  0  0
 25 41  1  0  0  0  0
 26 42  1  0  0  0  0
 27 43  1  0  0  0  0
 28 44  1  0  0  0  0
M  END
>  <Molecule ChEMBL ID>
CHEMBL4067480

>  <Compound Key>
15a

>  <Active>
0

>  <StandardizerResult>
Dearomatize (ID: Dearomatize)
Clear Stereo (ID: ClearStereo)
Wedge Clean (ID: WedgeClean)
Mesomerize (ID: Mesomerize)
Tautomerize (ID: Tautomerize)
Aromatize (ID: Aromatize)
Add Explicit Hydrogens (ID: AddExplicitH)
Neutralize (ID: Neutralize)
Clean 2D (ID: Clean2D)


$$$$

  Mrv1551102232211292D          

 40 42  0  0  0  0            999 V2000
    4.7812    4.4104    0.0000 O   0  0  0  0  0  0  0  0  0  0  0  0
    4.7812    3.5854    0.0000 C   0  0  0  0  0  0  0  0  0  0  0  0
    4.0668    3.1729    0.0000 C   0  0  0  0  0  0  0  0  0  0  0  0
    4.0668    2.3479    0.0000 C   0  0  0  0  0  0  0  0  0  0  0  0
    3.3523    1.9354    0.0000 C   0  0  0  0  0  0  0  0  0  0  0  0
    3.3523    1.1104    0.0000 C   0  0  0  0  0  0  0  0  0  0  0  0
    2.6378    0.6979    0.0000 C   0  0  0  0  0  0  0  0  0  0  0  0
    1.9233    1.1104    0.0000 C   0  0  0  0  0  0  0  0  0  0  0  0
    1.9233    1.9354    0.0000 C   0  0  0  0  0  0  0  0  0  0  0  0
    1.1387    2.1904    0.0000 C   0  0  0  0  0  0  0  0  0  0  0  0
    0.6538    1.5229    0.0000 C   0  0  0  0  0  0  0  0  0  0  0  0
    1.1387    0.8555    0.0000 N   0  0  0  0  0  0  0  0  0  0  0  0
    0.8838    0.0709    0.0000 S   0  0  0  0  0  0  0  0  0  0  0  0
    1.6684   -0.1841    0.0000 O   0  0  0  0  0  0  0  0  0  0  0  0
    0.0992    0.3258    0.0000 O   0  0  0  0  0  0  0  0  0  0  0  0
    0.6288   -0.7138    0.0000 C   0  0  0  0  0  0  0  0  0  0  0  0
    1.1809   -1.3269    0.0000 C   0  0  0  0  0  0  0  0  0  0  0  0
    0.9259   -2.1115    0.0000 C   0  0  0  0  0  0  0  0  0  0  0  0
    0.1190   -2.2830    0.0000 C   0  0  0  0  0  0  0  0  0  0  0  0
   -0.1360   -3.0676    0.0000 N   0  0  0  0  0  0  0  0  0  0  0  0
   -0.9429   -3.2392    0.0000 O   0  0  0  0  0  0  0  0  0  0  0  0
    0.4161   -3.6807    0.0000 O   0  0  0  0  0  0  0  0  0  0  0  0
   -0.4331   -1.6699    0.0000 C   0  0  0  0  0  0  0  0  0  0  0  0
   -0.1781   -0.8853    0.0000 C   0  0  0  0  0  0  0  0  0  0  0  0
    2.6378    2.3479    0.0000 C   0  0  0  0  0  0  0  0  0  0  0  0
    5.4957    3.1729    0.0000 N   0  0  0  0  0  0  0  0  0  0  0  0
    6.2102    3.5854    0.0000 O   0  0  0  0  0  0  0  0  0  0  0  0
    3.3523    3.5854    0.0000 H   0  0  0  0  0  0  0  0  0  0  0  0
    4.7812    1.9354    0.0000 H   0  0  0  0  0  0  0  0  0  0  0  0
    4.0668    0.6979    0.0000 H   0  0  0  0  0  0  0  0  0  0  0  0
    2.6378   -0.1271    0.0000 H   0  0  0  0  0  0  0  0  0  0  0  0
    0.8838    2.9750    0.0000 H   0  0  0  0  0  0  0  0  0  0  0  0
   -0.1712    1.5229    0.0000 H   0  0  0  0  0  0  0  0  0  0  0  0
    1.9878   -1.1553    0.0000 H   0  0  0  0  0  0  0  0  0  0  0  0
    1.4780   -2.7246    0.0000 H   0  0  0  0  0  0  0  0  0  0  0  0
   -1.2400   -1.8414    0.0000 H   0  0  0  0  0  0  0  0  0  0  0  0
   -0.7302   -0.2722    0.0000 H   0  0  0  0  0  0  0  0  0  0  0  0
    2.6378    3.1729    0.0000 H   0  0  0  0  0  0  0  0  0  0  0  0
    5.4957    2.3479    0.0000 H   0  0  0  0  0  0  0  0  0  0  0  0
    6.9246    3.1729    0.0000 H   0  0  0  0  0  0  0  0  0  0  0  0
  1  2  2  0  0  0  0
  3  2  1  4  0  0  0
  3  4  2  0  0  0  0
  4  5  1  0  0  0  0
  5  6  4  0  0  0  0
  6  7  4  0  0  0  0
  7  8  4  0  0  0  0
  8  9  4  0  0  0  0
  9 10  4  0  0  0  0
 10 11  4  0  0  0  0
 11 12  4  0  0  0  0
  8 12  4  0  0  0  0
 12 13  1  0  0  0  0
 13 14  2  0  0  0  0
 13 15  2  0  0  0  0
 13 16  1  0  0  0  0
 16 17  4  0  0  0  0
 17 18  4  0  0  0  0
 18 19  4  0  0  0  0
 19 20  1  0  0  0  0
 20 21  2  0  0  0  0
 20 22  2  0  0  0  0
 19 23  4  0  0  0  0
 23 24  4  0  0  0  0
 16 24  4  0  0  0  0
  9 25  4  0  0  0  0
  5 25  4  0  0  0  0
  2 26  1  0  0  0  0
 26 27  1  0  0  0  0
  3 28  1  0  0  0  0
  4 29  1  0  0  0  0
  6 30  1  0  0  0  0
  7 31  1  0  0  0  0
 10 32  1  0  0  0  0
 11 33  1  0  0  0  0
 17 34  1  0  0  0  0
 18 35  1  0  0  0  0
 23 36  1  0  0  0  0
 24 37  1  0  0  0  0
 25 38  1  0  0  0  0
 26 39  1  0  0  0  0
 27 40  1  0  0  0  0
M  END
>  <Molecule ChEMBL ID>
CHEMBL2048752

>  <Compound Key>
14

>  <Active>
0

>  <StandardizerResult>
Dearomatize (ID: Dearomatize)
Clear Stereo (ID: ClearStereo)
Wedge Clean (ID: WedgeClean)
Mesomerize (ID: Mesomerize)
Tautomerize (ID: Tautomerize)
Aromatize (ID: Aromatize)
Add Explicit Hydrogens (ID: AddExplicitH)
Transform (ID: NO2)
Transform (ID: N=O=O-)
Clean 2D (ID: Clean2D)


$$$$

  Mrv1551102232211292D          

 69 73  0  0  0  0            999 V2000
   -7.4263    1.0155    0.0000 C   0  0  0  0  0  0  0  0  0  0  0  0
   -7.0907    0.2619    0.0000 O   0  0  0  0  0  0  0  0  0  0  0  0
   -6.2702    0.1756    0.0000 C   0  0  0  0  0  0  0  0  0  0  0  0
   -5.7853    0.8431    0.0000 C   0  0  0  0  0  0  0  0  0  0  0  0
   -4.9648    0.7568    0.0000 C   0  0  0  0  0  0  0  0  0  0  0  0
   -4.4799    1.4243    0.0000 N   0  0  0  0  0  0  0  0  0  0  0  0
   -4.8155    2.1779    0.0000 C   0  0  0  0  0  0  0  0  0  0  0  0
   -5.6360    2.2642    0.0000 N   0  0  0  0  0  0  0  0  0  0  0  0
   -5.9715    3.0178    0.0000 C   0  0  0  0  0  0  0  0  0  0  0  0
   -5.4866    3.6853    0.0000 N   0  0  0  0  0  0  0  0  0  0  0  0
   -4.6661    3.5990    0.0000 C   0  0  0  0  0  0  0  0  0  0  0  0
   -4.1812    4.2665    0.0000 C   0  0  0  0  0  0  0  0  0  0  0  0
   -3.3607    4.1802    0.0000 C   0  0  0  0  0  0  0  0  0  0  0  0
   -3.0251    3.4266    0.0000 C   0  0  0  0  0  0  0  0  0  0  0  0
   -2.2047    3.3403    0.0000 C   0  0  0  0  0  0  0  0  0  0  0  0
   -1.6526    3.9534    0.0000 C   0  0  0  0  0  0  0  0  0  0  0  0
   -0.8990    3.6179    0.0000 N   0  0  0  0  0  0  0  0  0  0  0  0
   -0.1845    4.0304    0.0000 C   0  0  0  0  0  0  0  0  0  0  0  0
    0.5300    3.6179    0.0000 C   0  0  0  0  0  0  0  0  0  0  0  0
    1.2445    4.0304    0.0000 C   0  0  0  0  0  0  0  0  0  0  0  0
    1.9589    3.6179    0.0000 C   0  0  0  0  0  0  0  0  0  0  0  0
    2.6734    4.0304    0.0000 C   0  0  0  0  0  0  0  0  0  0  0  0
    3.3879    3.6179    0.0000 C   0  0  0  0  0  0  0  0  0  0  0  0
    3.3879    2.7929    0.0000 O   0  0  0  0  0  0  0  0  0  0  0  0
    4.1023    4.0304    0.0000 N   0  0  0  0  0  0  0  0  0  0  0  0
    4.8168    3.6179    0.0000 O   0  0  0  0  0  0  0  0  0  0  0  0
   -0.9852    2.7974    0.0000 N   0  0  0  0  0  0  0  0  0  0  0  0
   -1.7922    2.6259    0.0000 N   0  0  0  0  0  0  0  0  0  0  0  0
   -3.5101    2.7591    0.0000 C   0  0  0  0  0  0  0  0  0  0  0  0
   -4.3306    2.8454    0.0000 C   0  0  0  0  0  0  0  0  0  0  0  0
   -4.6293    0.0031    0.0000 C   0  0  0  0  0  0  0  0  0  0  0  0
   -5.1142   -0.6643    0.0000 C   0  0  0  0  0  0  0  0  0  0  0  0
   -5.9347   -0.5781    0.0000 C   0  0  0  0  0  0  0  0  0  0  0  0
   -6.4196   -1.2455    0.0000 O   0  0  0  0  0  0  0  0  0  0  0  0
   -7.2401   -1.1593    0.0000 C   0  0  0  0  0  0  0  0  0  0  0  0
   -7.7250   -1.8267    0.0000 C   0  0  0  0  0  0  0  0  0  0  0  0
   -8.5455   -1.7405    0.0000 C   0  0  0  0  0  0  0  0  0  0  0  0
   -8.8811   -0.9868    0.0000 C   0  0  0  0  0  0  0  0  0  0  0  0
   -8.3961   -0.3194    0.0000 C   0  0  0  0  0  0  0  0  0  0  0  0
   -7.5756   -0.4056    0.0000 C   0  0  0  0  0  0  0  0  0  0  0  0
   -6.6726    1.3511    0.0000 H   0  0  0  0  0  0  0  0  0  0  0  0
   -7.7618    1.7692    0.0000 H   0  0  0  0  0  0  0  0  0  0  0  0
   -8.1800    0.6800    0.0000 H   0  0  0  0  0  0  0  0  0  0  0  0
   -6.1209    1.5967    0.0000 H   0  0  0  0  0  0  0  0  0  0  0  0
   -3.6594    1.3380    0.0000 H   0  0  0  0  0  0  0  0  0  0  0  0
   -6.7920    3.1041    0.0000 H   0  0  0  0  0  0  0  0  0  0  0  0
   -4.5167    5.0202    0.0000 H   0  0  0  0  0  0  0  0  0  0  0  0
   -2.8758    4.8477    0.0000 H   0  0  0  0  0  0  0  0  0  0  0  0
   -1.8242    4.7604    0.0000 H   0  0  0  0  0  0  0  0  0  0  0  0
    0.1858    4.7676    0.0000 H   0  0  0  0  0  0  0  0  0  0  0  0
   -0.5547    4.7676    0.0000 H   0  0  0  0  0  0  0  0  0  0  0  0
    0.1597    2.8806    0.0000 H   0  0  0  0  0  0  0  0  0  0  0  0
    0.9002    2.8806    0.0000 H   0  0  0  0  0  0  0  0  0  0  0  0
    1.6147    4.7676    0.0000 H   0  0  0  0  0  0  0  0  0  0  0  0
    0.8742    4.7676    0.0000 H   0  0  0  0  0  0  0  0  0  0  0  0
    1.5887    2.8806    0.0000 H   0  0  0  0  0  0  0  0  0  0  0  0
    2.3292    2.8806    0.0000 H   0  0  0  0  0  0  0  0  0  0  0  0
    3.0437    4.7676    0.0000 H   0  0  0  0  0  0  0  0  0  0  0  0
    2.3031    4.7676    0.0000 H   0  0  0  0  0  0  0  0  0  0  0  0
    4.1023    4.8554    0.0000 H   0  0  0  0  0  0  0  0  0  0  0  0
    4.8168    2.7929    0.0000 H   0  0  0  0  0  0  0  0  0  0  0  0
   -3.1745    2.0055    0.0000 H   0  0  0  0  0  0  0  0  0  0  0  0
   -3.8088   -0.0831    0.0000 H   0  0  0  0  0  0  0  0  0  0  0  0
   -4.7786   -1.4180    0.0000 H   0  0  0  0  0  0  0  0  0  0  0  0
   -7.3895   -2.5804    0.0000 H   0  0  0  0  0  0  0  0  0  0  0  0
   -9.0304   -2.4079    0.0000 H   0  0  0  0  0  0  0  0  0  0  0  0
   -9.7015   -0.9006    0.0000 H   0  0  0  0  0  0  0  0  0  0  0  0
   -8.7317    0.4343    0.0000 H   0  0  0  0  0  0  0  0  0  0  0  0
   -6.7552   -0.4918    0.0000 H   0  0  0  0  0  0  0  0  0  0  0  0
  1  2  1  0  0  0  0
  2  3  1  0  0  0  0
  3  4  4  0  0  0  0
  4  5  4  0  0  0  0
  5  6  1  0  0  0  0
  6  7  1  0  0  0  0
  7  8  4  0  0  0  0
  8  9  4  0  0  0  0
  9 10  4  0  0  0  0
 10 11  4  0  0  0  0
 11 12  4  0  0  0  0
 12 13  4  0  0  0  0
 13 14  4  0  0  0  0
 14 15  1  0  0  0  0
 15 16  4  0  0  0  0
 16 17  4  0  0  0  0
 17 18  1  0  0  0  0
 18 19  1  0  0  0  0
 19 20  1  0  0  0  0
 20 21  1  0  0  0  0
 21 22  1  0  0  0  0
 22 23  1  0  0  0  0
 23 24  2  0  0  0  0
 23 25  1  0  0  0  0
 25 26  1  0  0  0  0
 17 27  4  0  0  0  0
 27 28  4  0  0  0  0
 15 28  4  0  0  0  0
 14 29  4  0  0  0  0
 29 30  4  0  0  0  0
  7 30  4  0  0  0  0
 11 30  4  0  0  0  0
  5 31  4  0  0  0  0
 31 32  4  0  0  0  0
 32 33  4  0  0  0  0
  3 33  4  0  0  0  0
 33 34  1  0  0  0  0
 34 35  1  0  0  0  0
 35 36  4  0  0  0  0
 36 37  4  0  0  0  0
 37 38  4  0  0  0  0
 38 39  4  0  0  0  0
 39 40  4  0  0  0  0
 35 40  4  0  0  0  0
  1 41  1  0  0  0  0
  1 42  1  0  0  0  0
  1 43  1  0  0  0  0
  4 44  1  0  0  0  0
  6 45  1  0  0  0  0
  9 46  1  0  0  0  0
 12 47  1  0  0  0  0
 13 48  1  0  0  0  0
 16 49  1  0  0  0  0
 18 50  1  0  0  0  0
 18 51  1  0  0  0  0
 19 52  1  0  0  0  0
 19 53  1  0  0  0  0
 20 54  1  0  0  0  0
 20 55  1  0  0  0  0
 21 56  1  0  0  0  0
 21 57  1  0  0  0  0
 22 58  1  0  0  0  0
 22 59  1  0  0  0  0
 25 60  1  0  0  0  0
 26 61  1  0  0  0  0
 29 62  1  0  0  0  0
 31 63  1  0  0  0  0
 32 64  1  0  0  0  0
 36 65  1  0  0  0  0
 37 66  1  0  0  0  0
 38 67  1  0  0  0  0
 39 68  1  0  0  0  0
 40 69  1  0  0  0  0
M  END
>  <Molecule ChEMBL ID>
CHEMBL3921816

>  <Compound Key>
9k

>  <Active>
0

>  <StandardizerResult>
Dearomatize (ID: Dearomatize)
Clear Stereo (ID: ClearStereo)
Wedge Clean (ID: WedgeClean)
Mesomerize (ID: Mesomerize)
Tautomerize (ID: Tautomerize)
Aromatize (ID: Aromatize)
Add Explicit Hydrogens (ID: AddExplicitH)
Neutralize (ID: Neutralize)
Clean 2D (ID: Clean2D)


$$$$

  Mrv1551102232211292D          

 71 75  0  0  0  0            999 V2000
    7.1740   -2.8258    0.0000 O   0  0  0  0  0  0  0  0  0  0  0  0
    7.1740   -3.6508    0.0000 C   0  0  0  0  0  0  0  0  0  0  0  0
    6.4595   -4.0633    0.0000 C   0  0  0  0  0  0  0  0  0  0  0  0
    5.7450   -3.6508    0.0000 C   0  0  0  0  0  0  0  0  0  0  0  0
    5.0306   -4.0633    0.0000 C   0  0  0  0  0  0  0  0  0  0  0  0
    4.3161   -3.6508    0.0000 C   0  0  0  0  0  0  0  0  0  0  0  0
    3.6016   -4.0633    0.0000 C   0  0  0  0  0  0  0  0  0  0  0  0
    2.8872   -3.6508    0.0000 C   0  0  0  0  0  0  0  0  0  0  0  0
    2.1727   -4.0633    0.0000 N   0  0  0  0  0  0  0  0  0  0  0  0
    2.0864   -4.8838    0.0000 C   0  0  0  0  0  0  0  0  0  0  0  0
    1.2795   -5.0553    0.0000 C   0  0  0  0  0  0  0  0  0  0  0  0
    0.9439   -5.8090    0.0000 C   0  0  0  0  0  0  0  0  0  0  0  0
    1.4288   -6.4765    0.0000 C   0  0  0  0  0  0  0  0  0  0  0  0
    1.0933   -7.2301    0.0000 C   0  0  0  0  0  0  0  0  0  0  0  0
    0.2728   -7.3164    0.0000 C   0  0  0  0  0  0  0  0  0  0  0  0
   -0.0628   -8.0700    0.0000 N   0  0  0  0  0  0  0  0  0  0  0  0
   -0.8832   -8.1563    0.0000 C   0  0  0  0  0  0  0  0  0  0  0  0
   -1.3682   -7.4888    0.0000 N   0  0  0  0  0  0  0  0  0  0  0  0
   -1.0326   -6.7352    0.0000 C   0  0  0  0  0  0  0  0  0  0  0  0
   -1.5175   -6.0677    0.0000 N   0  0  0  0  0  0  0  0  0  0  0  0
   -2.3380   -6.1540    0.0000 C   0  0  0  0  0  0  0  0  0  0  0  0
   -2.6736   -6.9076    0.0000 C   0  0  0  0  0  0  0  0  0  0  0  0
   -3.4940   -6.9939    0.0000 C   0  0  0  0  0  0  0  0  0  0  0  0
   -3.9790   -6.3264    0.0000 C   0  0  0  0  0  0  0  0  0  0  0  0
   -4.7994   -6.4127    0.0000 O   0  0  0  0  0  0  0  0  0  0  0  0
   -5.2844   -5.7452    0.0000 C   0  0  0  0  0  0  0  0  0  0  0  0
   -6.1048   -5.8315    0.0000 C   0  0  0  0  0  0  0  0  0  0  0  0
   -6.4404   -6.5851    0.0000 C   0  0  0  0  0  0  0  0  0  0  0  0
   -7.2609   -6.6714    0.0000 C   0  0  0  0  0  0  0  0  0  0  0  0
   -7.7458   -6.0039    0.0000 C   0  0  0  0  0  0  0  0  0  0  0  0
   -7.4103   -5.2503    0.0000 C   0  0  0  0  0  0  0  0  0  0  0  0
   -7.8952   -4.5828    0.0000 F   0  0  0  0  0  0  0  0  0  0  0  0
   -6.5898   -5.1640    0.0000 C   0  0  0  0  0  0  0  0  0  0  0  0
   -3.6434   -5.5728    0.0000 C   0  0  0  0  0  0  0  0  0  0  0  0
   -4.1283   -4.9053    0.0000 Cl  0  0  0  0  0  0  0  0  0  0  0  0
   -2.8229   -5.4865    0.0000 C   0  0  0  0  0  0  0  0  0  0  0  0
   -0.2121   -6.6489    0.0000 C   0  0  0  0  0  0  0  0  0  0  0  0
    0.1234   -5.8953    0.0000 C   0  0  0  0  0  0  0  0  0  0  0  0
    0.8670   -4.3409    0.0000 N   0  0  0  0  0  0  0  0  0  0  0  0
    1.4190   -3.7278    0.0000 N   0  0  0  0  0  0  0  0  0  0  0  0
    7.8885   -4.0633    0.0000 N   0  0  0  0  0  0  0  0  0  0  0  0
    8.6029   -3.6508    0.0000 O   0  0  0  0  0  0  0  0  0  0  0  0
    6.0892   -4.8006    0.0000 H   0  0  0  0  0  0  0  0  0  0  0  0
    6.8298   -4.8006    0.0000 H   0  0  0  0  0  0  0  0  0  0  0  0
    6.1153   -2.9136    0.0000 H   0  0  0  0  0  0  0  0  0  0  0  0
    5.3748   -2.9136    0.0000 H   0  0  0  0  0  0  0  0  0  0  0  0
    4.6603   -4.8006    0.0000 H   0  0  0  0  0  0  0  0  0  0  0  0
    5.4008   -4.8006    0.0000 H   0  0  0  0  0  0  0  0  0  0  0  0
    4.6864   -2.9136    0.0000 H   0  0  0  0  0  0  0  0  0  0  0  0
    3.9458   -2.9136    0.0000 H   0  0  0  0  0  0  0  0  0  0  0  0
    3.2314   -4.8006    0.0000 H   0  0  0  0  0  0  0  0  0  0  0  0
    3.9719   -4.8006    0.0000 H   0  0  0  0  0  0  0  0  0  0  0  0
    3.2574   -2.9136    0.0000 H   0  0  0  0  0  0  0  0  0  0  0  0
    2.5169   -2.9136    0.0000 H   0  0  0  0  0  0  0  0  0  0  0  0
    2.6995   -5.4359    0.0000 H   0  0  0  0  0  0  0  0  0  0  0  0
    2.2493   -6.3902    0.0000 H   0  0  0  0  0  0  0  0  0  0  0  0
    1.5782   -7.8976    0.0000 H   0  0  0  0  0  0  0  0  0  0  0  0
   -1.2188   -8.9100    0.0000 H   0  0  0  0  0  0  0  0  0  0  0  0
   -1.1820   -5.3141    0.0000 H   0  0  0  0  0  0  0  0  0  0  0  0
   -2.1886   -7.5751    0.0000 H   0  0  0  0  0  0  0  0  0  0  0  0
   -3.8296   -7.7475    0.0000 H   0  0  0  0  0  0  0  0  0  0  0  0
   -4.6463   -5.2223    0.0000 H   0  0  0  0  0  0  0  0  0  0  0  0
   -5.3228   -4.9211    0.0000 H   0  0  0  0  0  0  0  0  0  0  0  0
   -5.9555   -7.2526    0.0000 H   0  0  0  0  0  0  0  0  0  0  0  0
   -7.5964   -7.4251    0.0000 H   0  0  0  0  0  0  0  0  0  0  0  0
   -8.5663   -6.0902    0.0000 H   0  0  0  0  0  0  0  0  0  0  0  0
   -6.2542   -4.4104    0.0000 H   0  0  0  0  0  0  0  0  0  0  0  0
   -2.4874   -4.7328    0.0000 H   0  0  0  0  0  0  0  0  0  0  0  0
   -0.3615   -5.2278    0.0000 H   0  0  0  0  0  0  0  0  0  0  0  0
    7.8885   -4.8883    0.0000 H   0  0  0  0  0  0  0  0  0  0  0  0
    9.3174   -4.0633    0.0000 H   0  0  0  0  0  0  0  0  0  0  0  0
  1  2  2  0  0  0  0
  2  3  1  0  0  0  0
  3  4  1  0  0  0  0
  4  5  1  0  0  0  0
  5  6  1  0  0  0  0
  6  7  1  0  0  0  0
  7  8  1  0  0  0  0
  8  9  1  0  0  0  0
  9 10  4  0  0  0  0
 10 11  4  0  0  0  0
 11 12  1  0  0  0  0
 12 13  4  0  0  0  0
 13 14  4  0  0  0  0
 14 15  4  0  0  0  0
 15 16  4  0  0  0  0
 16 17  4  0  0  0  0
 17 18  4  0  0  0  0
 18 19  4  0  0  0  0
 19 20  1  0  0  0  0
 20 21  1  0  0  0  0
 21 22  4  0  0  0  0
 22 23  4  0  0  0  0
 23 24  4  0  0  0  0
 24 25  1  0  0  0  0
 25 26  1  0  0  0  0
 26 27  1  0  0  0  0
 27 28  4  0  0  0  0
 28 29  4  0  0  0  0
 29 30  4  0  0  0  0
 30 31  4  0  0  0  0
 31 32  1  0  0  0  0
 31 33  4  0  0  0  0
 27 33  4  0  0  0  0
 24 34  4  0  0  0  0
 34 35  1  0  0  0  0
 34 36  4  0  0  0  0
 21 36  4  0  0  0  0
 19 37  4  0  0  0  0
 15 37  4  0  0  0  0
 37 38  4  0  0  0  0
 12 38  4  0  0  0  0
 11 39  4  0  0  0  0
 39 40  4  0  0  0  0
  9 40  4  0  0  0  0
  2 41  1  0  0  0  0
 41 42  1  0  0  0  0
  3 43  1  0  0  0  0
  3 44  1  0  0  0  0
  4 45  1  0  0  0  0
  4 46  1  0  0  0  0
  5 47  1  0  0  0  0
  5 48  1  0  0  0  0
  6 49  1  0  0  0  0
  6 50  1  0  0  0  0
  7 51  1  0  0  0  0
  7 52  1  0  0  0  0
  8 53  1  0  0  0  0
  8 54  1  0  0  0  0
 10 55  1  0  0  0  0
 13 56  1  0  0  0  0
 14 57  1  0  0  0  0
 17 58  1  0  0  0  0
 20 59  1  0  0  0  0
 22 60  1  0  0  0  0
 23 61  1  0  0  0  0
 26 62  1  0  0  0  0
 26 63  1  0  0  0  0
 28 64  1  0  0  0  0
 29 65  1  0  0  0  0
 30 66  1  0  0  0  0
 33 67  1  0  0  0  0
 36 68  1  0  0  0  0
 38 69  1  0  0  0  0
 41 70  1  0  0  0  0
 42 71  1  0  0  0  0
M  END
>  <Molecule ChEMBL ID>
CHEMBL3911796

>  <Compound Key>
9f

>  <Active>
0

>  <StandardizerResult>
Dearomatize (ID: Dearomatize)
Clear Stereo (ID: ClearStereo)
Wedge Clean (ID: WedgeClean)
Mesomerize (ID: Mesomerize)
Tautomerize (ID: Tautomerize)
Aromatize (ID: Aromatize)
Add Explicit Hydrogens (ID: AddExplicitH)
Neutralize (ID: Neutralize)
Clean 2D (ID: Clean2D)


$$$$

  Mrv1551102232211292D          

 56 58  0  0  0  0            999 V2000
    2.8652   -4.9246    0.0000 C   0  0  0  0  0  0  0  0  0  0  0  0
    2.1508   -4.5121    0.0000 C   0  0  0  0  0  0  0  0  0  0  0  0
    1.4363   -4.9246    0.0000 N   0  0  0  0  0  0  0  0  0  0  0  0
    0.7218   -4.5121    0.0000 C   0  0  0  0  0  0  0  0  0  0  0  0
    0.7218   -3.6871    0.0000 C   0  0  0  0  0  0  0  0  0  0  0  0
    1.4363   -3.2746    0.0000 C   0  0  0  0  0  0  0  0  0  0  0  0
    1.4363   -2.4496    0.0000 N   0  0  0  0  0  0  0  0  0  0  0  0
    0.7218   -2.0371    0.0000 C   0  0  0  0  0  0  0  0  0  0  0  0
    2.1508   -2.0371    0.0000 C   0  0  0  0  0  0  0  0  0  0  0  0
    2.1508   -1.2121    0.0000 C   0  0  0  0  0  0  0  0  0  0  0  0
    2.8652   -0.7996    0.0000 C   0  0  0  0  0  0  0  0  0  0  0  0
    3.5797   -1.2121    0.0000 C   0  0  0  0  0  0  0  0  0  0  0  0
    4.2942   -0.7996    0.0000 O   0  0  0  0  0  0  0  0  0  0  0  0
    5.0087   -1.2121    0.0000 C   0  0  0  0  0  0  0  0  0  0  0  0
    5.7231   -0.7996    0.0000 C   0  0  0  0  0  0  0  0  0  0  0  0
    6.4376   -1.2121    0.0000 C   0  0  0  0  0  0  0  0  0  0  0  0
    7.1521   -0.7996    0.0000 C   0  0  0  0  0  0  0  0  0  0  0  0
    7.8665   -1.2121    0.0000 C   0  0  0  0  0  0  0  0  0  0  0  0
    8.5810   -0.7996    0.0000 C   0  0  0  0  0  0  0  0  0  0  0  0
    8.5810    0.0254    0.0000 O   0  0  0  0  0  0  0  0  0  0  0  0
    9.2955   -1.2121    0.0000 N   0  0  0  0  0  0  0  0  0  0  0  0
   10.0100   -0.7996    0.0000 O   0  0  0  0  0  0  0  0  0  0  0  0
    3.5797   -2.0371    0.0000 C   0  0  0  0  0  0  0  0  0  0  0  0
    2.8652   -2.4496    0.0000 C   0  0  0  0  0  0  0  0  0  0  0  0
    2.1508   -3.6871    0.0000 N   0  0  0  0  0  0  0  0  0  0  0  0
   -0.0628   -3.4321    0.0000 C   0  0  0  0  0  0  0  0  0  0  0  0
   -0.5477   -4.0996    0.0000 C   0  0  0  0  0  0  0  0  0  0  0  0
   -0.0628   -4.7670    0.0000 C   0  0  0  0  0  0  0  0  0  0  0  0
    2.4527   -5.6390    0.0000 H   0  0  0  0  0  0  0  0  0  0  0  0
    3.5797   -5.3371    0.0000 H   0  0  0  0  0  0  0  0  0  0  0  0
    3.2777   -4.2101    0.0000 H   0  0  0  0  0  0  0  0  0  0  0  0
    1.1343   -1.3226    0.0000 H   0  0  0  0  0  0  0  0  0  0  0  0
    0.0074   -1.6246    0.0000 H   0  0  0  0  0  0  0  0  0  0  0  0
    0.3093   -2.7515    0.0000 H   0  0  0  0  0  0  0  0  0  0  0  0
    1.4363   -0.7996    0.0000 H   0  0  0  0  0  0  0  0  0  0  0  0
    2.8652    0.0254    0.0000 H   0  0  0  0  0  0  0  0  0  0  0  0
    4.6384   -1.9493    0.0000 H   0  0  0  0  0  0  0  0  0  0  0  0
    5.3789   -1.9493    0.0000 H   0  0  0  0  0  0  0  0  0  0  0  0
    6.0934   -0.0623    0.0000 H   0  0  0  0  0  0  0  0  0  0  0  0
    5.3529   -0.0623    0.0000 H   0  0  0  0  0  0  0  0  0  0  0  0
    6.0673   -1.9493    0.0000 H   0  0  0  0  0  0  0  0  0  0  0  0
    6.8079   -1.9493    0.0000 H   0  0  0  0  0  0  0  0  0  0  0  0
    7.5223   -0.0623    0.0000 H   0  0  0  0  0  0  0  0  0  0  0  0
    6.7818   -0.0623    0.0000 H   0  0  0  0  0  0  0  0  0  0  0  0
    7.4963   -1.9493    0.0000 H   0  0  0  0  0  0  0  0  0  0  0  0
    8.2368   -1.9493    0.0000 H   0  0  0  0  0  0  0  0  0  0  0  0
    9.2955   -2.0371    0.0000 H   0  0  0  0  0  0  0  0  0  0  0  0
   10.7244   -1.2121    0.0000 H   0  0  0  0  0  0  0  0  0  0  0  0
    4.2942   -2.4496    0.0000 H   0  0  0  0  0  0  0  0  0  0  0  0
    2.8652   -3.2746    0.0000 H   0  0  0  0  0  0  0  0  0  0  0  0
   -0.4613   -2.7098    0.0000 H   0  0  0  0  0  0  0  0  0  0  0  0
   -0.8862   -3.3810    0.0000 H   0  0  0  0  0  0  0  0  0  0  0  0
   -1.3616   -4.2345    0.0000 H   0  0  0  0  0  0  0  0  0  0  0  0
   -1.0578   -4.7480    0.0000 H   0  0  0  0  0  0  0  0  0  0  0  0
   -0.6562   -5.3401    0.0000 H   0  0  0  0  0  0  0  0  0  0  0  0
    0.0805   -5.5795    0.0000 H   0  0  0  0  0  0  0  0  0  0  0  0
  1  2  1  0  0  0  0
  2  3  4  0  0  0  0
  3  4  4  0  0  0  0
  4  5  4  0  0  0  0
  5  6  4  0  0  0  0
  6  7  1  0  0  0  0
  7  8  1  0  0  0  0
  7  9  1  0  0  0  0
  9 10  4  0  0  0  0
 10 11  4  0  0  0  0
 11 12  4  0  0  0  0
 12 13  1  0  0  0  0
 13 14  1  0  0  0  0
 14 15  1  0  0  0  0
 15 16  1  0  0  0  0
 16 17  1  0  0  0  0
 17 18  1  0  0  0  0
 18 19  1  0  0  0  0
 19 20  2  0  0  0  0
 19 21  1  0  0  0  0
 21 22  1  0  0  0  0
 12 23  4  0  0  0  0
 23 24  4  0  0  0  0
  9 24  4  0  0  0  0
  6 25  4  0  0  0  0
  2 25  4  0  0  0  0
  5 26  1  0  0  0  0
 26 27  1  0  0  0  0
 27 28  1  0  0  0  0
  4 28  1  0  0  0  0
  1 29  1  0  0  0  0
  1 30  1  0  0  0  0
  1 31  1  0  0  0  0
  8 32  1  0  0  0  0
  8 33  1  0  0  0  0
  8 34  1  0  0  0  0
 10 35  1  0  0  0  0
 11 36  1  0  0  0  0
 14 37  1  0  0  0  0
 14 38  1  0  0  0  0
 15 39  1  0  0  0  0
 15 40  1  0  0  0  0
 16 41  1  0  0  0  0
 16 42  1  0  0  0  0
 17 43  1  0  0  0  0
 17 44  1  0  0  0  0
 18 45  1  0  0  0  0
 18 46  1  0  0  0  0
 21 47  1  0  0  0  0
 22 48  1  0  0  0  0
 23 49  1  0  0  0  0
 24 50  1  0  0  0  0
 26 51  1  0  0  0  0
 26 52  1  0  0  0  0
 27 53  1  0  0  0  0
 27 54  1  0  0  0  0
 28 55  1  0  0  0  0
 28 56  1  0  0  0  0
M  END
>  <Molecule ChEMBL ID>
CHEMBL3775072

>  <Compound Key>
16d

>  <Active>
0

>  <StandardizerResult>
Dearomatize (ID: Dearomatize)
Clear Stereo (ID: ClearStereo)
Wedge Clean (ID: WedgeClean)
Mesomerize (ID: Mesomerize)
Tautomerize (ID: Tautomerize)
Aromatize (ID: Aromatize)
Add Explicit Hydrogens (ID: AddExplicitH)
Neutralize (ID: Neutralize)
Clean 2D (ID: Clean2D)


$$$$

  Mrv1551102232211292D          

 59 61  0  0  0  0            999 V2000
    6.3474   -1.2884    0.0000 C   0  0  0  0  0  0  0  0  0  0  0  0
    5.6330   -1.7009    0.0000 O   0  0  0  0  0  0  0  0  0  0  0  0
    4.9185   -1.2884    0.0000 C   0  0  0  0  0  0  0  0  0  0  0  0
    4.2040   -1.7009    0.0000 C   0  0  0  0  0  0  0  0  0  0  0  0
    3.4895   -1.2884    0.0000 C   0  0  0  0  0  0  0  0  0  0  0  0
    3.4895   -0.4634    0.0000 C   0  0  0  0  0  0  0  0  0  0  0  0
    2.7751   -0.0509    0.0000 N   0  0  0  0  0  0  0  0  0  0  0  0
    2.7751    0.7741    0.0000 C   0  0  0  0  0  0  0  0  0  0  0  0
    2.0606   -0.4634    0.0000 C   0  0  0  0  0  0  0  0  0  0  0  0
    2.0606   -1.2884    0.0000 N   0  0  0  0  0  0  0  0  0  0  0  0
    1.3461   -1.7009    0.0000 C   0  0  0  0  0  0  0  0  0  0  0  0
    1.3461   -2.5259    0.0000 C   0  0  0  0  0  0  0  0  0  0  0  0
    0.6317   -1.2884    0.0000 N   0  0  0  0  0  0  0  0  0  0  0  0
    0.6317   -0.4634    0.0000 C   0  0  0  0  0  0  0  0  0  0  0  0
   -0.0828   -0.0509    0.0000 C   0  0  0  0  0  0  0  0  0  0  0  0
   -0.0828    0.7741    0.0000 C   0  0  0  0  0  0  0  0  0  0  0  0
    0.6317    1.1866    0.0000 C   0  0  0  0  0  0  0  0  0  0  0  0
    1.3461    0.7741    0.0000 C   0  0  0  0  0  0  0  0  0  0  0  0
    1.3461   -0.0509    0.0000 C   0  0  0  0  0  0  0  0  0  0  0  0
    4.2040   -0.0509    0.0000 C   0  0  0  0  0  0  0  0  0  0  0  0
    4.9185   -0.4634    0.0000 C   0  0  0  0  0  0  0  0  0  0  0  0
    5.6330   -0.0509    0.0000 O   0  0  0  0  0  0  0  0  0  0  0  0
    6.3474   -0.4634    0.0000 C   0  0  0  0  0  0  0  0  0  0  0  0
    7.0619   -0.0509    0.0000 C   0  0  0  0  0  0  0  0  0  0  0  0
    7.7764   -0.4634    0.0000 C   0  0  0  0  0  0  0  0  0  0  0  0
    8.4908   -0.0509    0.0000 C   0  0  0  0  0  0  0  0  0  0  0  0
    9.2053   -0.4634    0.0000 C   0  0  0  0  0  0  0  0  0  0  0  0
    9.9198   -0.0509    0.0000 C   0  0  0  0  0  0  0  0  0  0  0  0
    9.9198    0.7741    0.0000 O   0  0  0  0  0  0  0  0  0  0  0  0
   10.6342   -0.4634    0.0000 N   0  0  0  0  0  0  0  0  0  0  0  0
   11.3487   -0.0509    0.0000 O   0  0  0  0  0  0  0  0  0  0  0  0
    6.3474   -2.1134    0.0000 H   0  0  0  0  0  0  0  0  0  0  0  0
    7.0619   -1.7009    0.0000 H   0  0  0  0  0  0  0  0  0  0  0  0
    7.0619   -0.8759    0.0000 H   0  0  0  0  0  0  0  0  0  0  0  0
    4.2040   -2.5259    0.0000 H   0  0  0  0  0  0  0  0  0  0  0  0
    2.7751   -1.7009    0.0000 H   0  0  0  0  0  0  0  0  0  0  0  0
    3.6001    0.7741    0.0000 H   0  0  0  0  0  0  0  0  0  0  0  0
    2.7751    1.5991    0.0000 H   0  0  0  0  0  0  0  0  0  0  0  0
    1.9501    0.7741    0.0000 H   0  0  0  0  0  0  0  0  0  0  0  0
    0.5211   -2.5259    0.0000 H   0  0  0  0  0  0  0  0  0  0  0  0
    1.3461   -3.3509    0.0000 H   0  0  0  0  0  0  0  0  0  0  0  0
    2.1711   -2.5259    0.0000 H   0  0  0  0  0  0  0  0  0  0  0  0
   -0.7973   -0.4634    0.0000 H   0  0  0  0  0  0  0  0  0  0  0  0
   -0.7973    1.1866    0.0000 H   0  0  0  0  0  0  0  0  0  0  0  0
    0.6317    2.0116    0.0000 H   0  0  0  0  0  0  0  0  0  0  0  0
    1.5597    1.5710    0.0000 H   0  0  0  0  0  0  0  0  0  0  0  0
    4.2040    0.7741    0.0000 H   0  0  0  0  0  0  0  0  0  0  0  0
    5.6330   -0.8759    0.0000 H   0  0  0  0  0  0  0  0  0  0  0  0
    6.3474    0.3616    0.0000 H   0  0  0  0  0  0  0  0  0  0  0  0
    7.6939    0.4794    0.0000 H   0  0  0  0  0  0  0  0  0  0  0  0
    7.2052    0.7616    0.0000 H   0  0  0  0  0  0  0  0  0  0  0  0
    7.9196   -1.2758    0.0000 H   0  0  0  0  0  0  0  0  0  0  0  0
    8.4084   -0.9936    0.0000 H   0  0  0  0  0  0  0  0  0  0  0  0
    9.2139    0.3464    0.0000 H   0  0  0  0  0  0  0  0  0  0  0  0
    8.5258    0.7734    0.0000 H   0  0  0  0  0  0  0  0  0  0  0  0
    9.2402   -1.2876    0.0000 H   0  0  0  0  0  0  0  0  0  0  0  0
    9.9284   -0.8606    0.0000 H   0  0  0  0  0  0  0  0  0  0  0  0
   11.0428   -1.1801    0.0000 H   0  0  0  0  0  0  0  0  0  0  0  0
   12.0632   -0.4634    0.0000 H   0  0  0  0  0  0  0  0  0  0  0  0
  1  2  1  0  0  0  0
  2  3  1  0  0  0  0
  3  4  4  0  0  0  0
  4  5  4  0  0  0  0
  5  6  4  0  0  0  0
  6  7  1  0  0  0  0
  7  8  1  0  0  0  0
  7  9  1  0  0  0  0
  9 10  4  0  0  0  0
 10 11  4  0  0  0  0
 11 12  1  0  0  0  0
 11 13  4  0  0  0  0
 13 14  4  0  0  0  0
 14 15  4  0  0  0  0
 15 16  4  0  0  0  0
 16 17  4  0  0  0  0
 17 18  4  0  0  0  0
 18 19  4  0  0  0  0
  9 19  4  0  0  0  0
 14 19  4  0  0  0  0
  6 20  4  0  0  0  0
 20 21  4  0  0  0  0
  3 21  4  0  0  0  0
 21 22  1  0  0  0  0
 22 23  1  0  0  0  0
 23 24  1  0  0  0  0
 24 25  1  0  0  0  0
 25 26  1  0  0  0  0
 26 27  1  0  0  0  0
 27 28  1  0  0  0  0
 28 29  2  0  0  0  0
 28 30  1  0  0  0  0
 30 31  1  0  0  0  0
  1 32  1  0  0  0  0
  1 33  1  0  0  0  0
  1 34  1  0  0  0  0
  4 35  1  0  0  0  0
  5 36  1  0  0  0  0
  8 37  1  0  0  0  0
  8 38  1  0  0  0  0
  8 39  1  0  0  0  0
 12 40  1  0  0  0  0
 12 41  1  0  0  0  0
 12 42  1  0  0  0  0
 15 43  1  0  0  0  0
 16 44  1  0  0  0  0
 17 45  1  0  0  0  0
 18 46  1  0  0  0  0
 20 47  1  0  0  0  0
 23 48  1  0  0  0  0
 23 49  1  0  0  0  0
 24 50  1  0  0  0  0
 24 51  1  0  0  0  0
 25 52  1  0  0  0  0
 25 53  1  0  0  0  0
 26 54  1  0  0  0  0
 26 55  1  0  0  0  0
 27 56  1  0  0  0  0
 27 57  1  0  0  0  0
 30 58  1  0  0  0  0
 31 59  1  0  0  0  0
M  END
>  <Molecule ChEMBL ID>
CHEMBL3774890

>  <Compound Key>
23bd

>  <Active>
0

>  <StandardizerResult>
Dearomatize (ID: Dearomatize)
Clear Stereo (ID: ClearStereo)
Wedge Clean (ID: WedgeClean)
Mesomerize (ID: Mesomerize)
Tautomerize (ID: Tautomerize)
Aromatize (ID: Aromatize)
Add Explicit Hydrogens (ID: AddExplicitH)
Neutralize (ID: Neutralize)
Clean 2D (ID: Clean2D)


$$$$

  Mrv1551102232211292D          

 68 69  0  0  0  0            999 V2000
    0.8252   10.1599    0.0000 C   0  0  0  0  0  0  0  0  0  0  0  0
    0.0047   10.2461    0.0000 C   0  0  0  0  0  0  0  0  0  0  0  0
   -0.4802    9.5787    0.0000 N   0  0  0  0  0  0  0  0  0  0  0  0
   -0.1447    8.8250    0.0000 C   0  0  0  0  0  0  0  0  0  0  0  0
   -0.6296    8.1576    0.0000 C   0  0  0  0  0  0  0  0  0  0  0  0
   -1.3007    9.6649    0.0000 C   0  0  0  0  0  0  0  0  0  0  0  0
   -1.7856    8.9975    0.0000 C   0  0  0  0  0  0  0  0  0  0  0  0
   -2.6061    9.0837    0.0000 N   0  0  0  0  0  0  0  0  0  0  0  0
   -3.0910    8.4163    0.0000 C   0  0  0  0  0  0  0  0  0  0  0  0
   -3.9115    8.5025    0.0000 O   0  0  0  0  0  0  0  0  0  0  0  0
   -2.7555    7.6626    0.0000 C   0  0  0  0  0  0  0  0  0  0  0  0
   -1.9350    7.5764    0.0000 C   0  0  0  0  0  0  0  0  0  0  0  0
   -1.5994    6.8227    0.0000 C   0  0  0  0  0  0  0  0  0  0  0  0
   -2.0844    6.1552    0.0000 C   0  0  0  0  0  0  0  0  0  0  0  0
   -1.7488    5.4016    0.0000 C   0  0  0  0  0  0  0  0  0  0  0  0
   -0.9418    5.2300    0.0000 C   0  0  0  0  0  0  0  0  0  0  0  0
   -0.8556    4.4096    0.0000 N   0  0  0  0  0  0  0  0  0  0  0  0
   -0.1411    3.9971    0.0000 C   0  0  0  0  0  0  0  0  0  0  0  0
    0.5733    4.4096    0.0000 C   0  0  0  0  0  0  0  0  0  0  0  0
    1.2878    3.9971    0.0000 C   0  0  0  0  0  0  0  0  0  0  0  0
    2.0023    4.4096    0.0000 C   0  0  0  0  0  0  0  0  0  0  0  0
    2.7168    3.9971    0.0000 C   0  0  0  0  0  0  0  0  0  0  0  0
    3.4312    4.4096    0.0000 C   0  0  0  0  0  0  0  0  0  0  0  0
    4.1457    3.9971    0.0000 C   0  0  0  0  0  0  0  0  0  0  0  0
    4.8602    4.4096    0.0000 C   0  0  0  0  0  0  0  0  0  0  0  0
    4.8602    5.2346    0.0000 O   0  0  0  0  0  0  0  0  0  0  0  0
    5.5746    3.9971    0.0000 N   0  0  0  0  0  0  0  0  0  0  0  0
    6.2891    4.4096    0.0000 O   0  0  0  0  0  0  0  0  0  0  0  0
   -1.6093    4.0740    0.0000 N   0  0  0  0  0  0  0  0  0  0  0  0
   -2.1613    4.6871    0.0000 N   0  0  0  0  0  0  0  0  0  0  0  0
   -2.9048    6.2415    0.0000 C   0  0  0  0  0  0  0  0  0  0  0  0
   -3.2404    6.9952    0.0000 C   0  0  0  0  0  0  0  0  0  0  0  0
    0.7389    9.3394    0.0000 H   0  0  0  0  0  0  0  0  0  0  0  0
    1.6457   10.0736    0.0000 H   0  0  0  0  0  0  0  0  0  0  0  0
    0.9114   10.9804    0.0000 H   0  0  0  0  0  0  0  0  0  0  0  0
    0.0431   11.0702    0.0000 H   0  0  0  0  0  0  0  0  0  0  0  0
   -0.6334   10.7690    0.0000 H   0  0  0  0  0  0  0  0  0  0  0  0
    0.5498    8.3797    0.0000 H   0  0  0  0  0  0  0  0  0  0  0  0
    0.6272    9.1162    0.0000 H   0  0  0  0  0  0  0  0  0  0  0  0
   -1.2970    8.6425    0.0000 H   0  0  0  0  0  0  0  0  0  0  0  0
   -1.1145    7.4901    0.0000 H   0  0  0  0  0  0  0  0  0  0  0  0
    0.0378    7.6726    0.0000 H   0  0  0  0  0  0  0  0  0  0  0  0
   -1.2623   10.4890    0.0000 H   0  0  0  0  0  0  0  0  0  0  0  0
   -1.9388   10.1878    0.0000 H   0  0  0  0  0  0  0  0  0  0  0  0
   -2.0813    8.2273    0.0000 H   0  0  0  0  0  0  0  0  0  0  0  0
   -2.1212    9.7512    0.0000 H   0  0  0  0  0  0  0  0  0  0  0  0
   -3.2736    9.5686    0.0000 H   0  0  0  0  0  0  0  0  0  0  0  0
   -2.4199    6.9089    0.0000 H   0  0  0  0  0  0  0  0  0  0  0  0
   -0.9320    6.3378    0.0000 H   0  0  0  0  0  0  0  0  0  0  0  0
   -0.3287    5.7821    0.0000 H   0  0  0  0  0  0  0  0  0  0  0  0
   -0.5114    3.2598    0.0000 H   0  0  0  0  0  0  0  0  0  0  0  0
    0.2291    3.2598    0.0000 H   0  0  0  0  0  0  0  0  0  0  0  0
    0.9436    5.1468    0.0000 H   0  0  0  0  0  0  0  0  0  0  0  0
    0.2031    5.1468    0.0000 H   0  0  0  0  0  0  0  0  0  0  0  0
    0.9176    3.2598    0.0000 H   0  0  0  0  0  0  0  0  0  0  0  0
    1.6581    3.2598    0.0000 H   0  0  0  0  0  0  0  0  0  0  0  0
    2.3725    5.1468    0.0000 H   0  0  0  0  0  0  0  0  0  0  0  0
    1.6320    5.1468    0.0000 H   0  0  0  0  0  0  0  0  0  0  0  0
    2.3465    3.2598    0.0000 H   0  0  0  0  0  0  0  0  0  0  0  0
    3.0870    3.2598    0.0000 H   0  0  0  0  0  0  0  0  0  0  0  0
    3.8015    5.1468    0.0000 H   0  0  0  0  0  0  0  0  0  0  0  0
    3.0610    5.1468    0.0000 H   0  0  0  0  0  0  0  0  0  0  0  0
    3.7754    3.2598    0.0000 H   0  0  0  0  0  0  0  0  0  0  0  0
    4.5160    3.2598    0.0000 H   0  0  0  0  0  0  0  0  0  0  0  0
    5.5746    3.1721    0.0000 H   0  0  0  0  0  0  0  0  0  0  0  0
    7.0036    3.9971    0.0000 H   0  0  0  0  0  0  0  0  0  0  0  0
   -3.3898    5.5740    0.0000 H   0  0  0  0  0  0  0  0  0  0  0  0
   -4.0609    7.0814    0.0000 H   0  0  0  0  0  0  0  0  0  0  0  0
  1  2  1  0  0  0  0
  2  3  1  0  0  0  0
  3  4  1  0  0  0  0
  4  5  1  0  0  0  0
  3  6  1  0  0  0  0
  6  7  1  0  0  0  0
  7  8  1  0  0  0  0
  8  9  1  0  0  0  0
  9 10  2  0  0  0  0
  9 11  1  0  0  0  0
 11 12  4  0  0  0  0
 12 13  4  0  0  0  0
 13 14  4  0  0  0  0
 14 15  1  0  0  0  0
 15 16  4  0  0  0  0
 16 17  4  0  0  0  0
 17 18  1  0  0  0  0
 18 19  1  0  0  0  0
 19 20  1  0  0  0  0
 20 21  1  0  0  0  0
 21 22  1  0  0  0  0
 22 23  1  0  0  0  0
 23 24  1  0  0  0  0
 24 25  1  0  0  0  0
 25 26  2  0  0  0  0
 25 27  1  0  0  0  0
 27 28  1  0  0  0  0
 17 29  4  0  0  0  0
 29 30  4  0  0  0  0
 15 30  4  0  0  0  0
 14 31  4  0  0  0  0
 31 32  4  0  0  0  0
 11 32  4  0  0  0  0
  1 33  1  0  0  0  0
  1 34  1  0  0  0  0
  1 35  1  0  0  0  0
  2 36  1  0  0  0  0
  2 37  1  0  0  0  0
  4 38  1  0  0  0  0
  4 39  1  0  0  0  0
  5 40  1  0  0  0  0
  5 41  1  0  0  0  0
  5 42  1  0  0  0  0
  6 43  1  0  0  0  0
  6 44  1  0  0  0  0
  7 45  1  0  0  0  0
  7 46  1  0  0  0  0
  8 47  1  0  0  0  0
 12 48  1  0  0  0  0
 13 49  1  0  0  0  0
 16 50  1  0  0  0  0
 18 51  1  0  0  0  0
 18 52  1  0  0  0  0
 19 53  1  0  0  0  0
 19 54  1  0  0  0  0
 20 55  1  0  0  0  0
 20 56  1  0  0  0  0
 21 57  1  0  0  0  0
 21 58  1  0  0  0  0
 22 59  1  0  0  0  0
 22 60  1  0  0  0  0
 23 61  1  0  0  0  0
 23 62  1  0  0  0  0
 24 63  1  0  0  0  0
 24 64  1  0  0  0  0
 27 65  1  0  0  0  0
 28 66  1  0  0  0  0
 31 67  1  0  0  0  0
 32 68  1  0  0  0  0
M  END
>  <Molecule ChEMBL ID>
CHEMBL4102456

>  <Compound Key>
10b

>  <Active>
0

>  <StandardizerResult>
Dearomatize (ID: Dearomatize)
Clear Stereo (ID: ClearStereo)
Wedge Clean (ID: WedgeClean)
Mesomerize (ID: Mesomerize)
Tautomerize (ID: Tautomerize)
Aromatize (ID: Aromatize)
Add Explicit Hydrogens (ID: AddExplicitH)
Neutralize (ID: Neutralize)
Clean 2D (ID: Clean2D)


$$$$

  Mrv1551102232211292D          

 56 57  0  0  0  0            999 V2000
   -8.1575    2.8793    0.0000 C   0  0  0  0  0  0  0  0  0  0  0  0
   -7.6726    3.5467    0.0000 C   0  0  0  0  0  0  0  0  0  0  0  0
   -7.0052    3.0618    0.0000 C   0  0  0  0  0  0  0  0  0  0  0  0
   -8.3400    4.0317    0.0000 C   0  0  0  0  0  0  0  0  0  0  0  0
   -7.1877    4.2142    0.0000 O   0  0  0  0  0  0  0  0  0  0  0  0
   -6.3672    4.1279    0.0000 C   0  0  0  0  0  0  0  0  0  0  0  0
   -6.0316    3.3743    0.0000 O   0  0  0  0  0  0  0  0  0  0  0  0
   -5.8823    4.7954    0.0000 N   0  0  0  0  0  0  0  0  0  0  0  0
   -5.0618    4.7091    0.0000 C   0  0  0  0  0  0  0  0  0  0  0  0
   -4.5769    5.3766    0.0000 C   0  0  0  0  0  0  0  0  0  0  0  0
   -3.7564    5.2903    0.0000 C   0  0  0  0  0  0  0  0  0  0  0  0
   -3.4208    4.5367    0.0000 C   0  0  0  0  0  0  0  0  0  0  0  0
   -2.6004    4.4504    0.0000 C   0  0  0  0  0  0  0  0  0  0  0  0
   -2.0483    5.0635    0.0000 C   0  0  0  0  0  0  0  0  0  0  0  0
   -1.2947    4.7280    0.0000 C   0  0  0  0  0  0  0  0  0  0  0  0
   -0.5802    5.1405    0.0000 C   0  0  0  0  0  0  0  0  0  0  0  0
   -0.5802    5.9655    0.0000 O   0  0  0  0  0  0  0  0  0  0  0  0
    0.1343    4.7280    0.0000 N   0  0  0  0  0  0  0  0  0  0  0  0
    0.8488    5.1405    0.0000 C   0  0  0  0  0  0  0  0  0  0  0  0
    1.5632    4.7280    0.0000 C   0  0  0  0  0  0  0  0  0  0  0  0
    2.2777    5.1405    0.0000 C   0  0  0  0  0  0  0  0  0  0  0  0
    2.9922    4.7280    0.0000 C   0  0  0  0  0  0  0  0  0  0  0  0
    3.7066    5.1405    0.0000 C   0  0  0  0  0  0  0  0  0  0  0  0
    3.7066    5.9655    0.0000 O   0  0  0  0  0  0  0  0  0  0  0  0
    4.4211    4.7280    0.0000 N   0  0  0  0  0  0  0  0  0  0  0  0
    5.1356    5.1405    0.0000 O   0  0  0  0  0  0  0  0  0  0  0  0
   -1.3809    3.9075    0.0000 N   0  0  0  0  0  0  0  0  0  0  0  0
   -2.1879    3.7360    0.0000 O   0  0  0  0  0  0  0  0  0  0  0  0
   -3.9058    3.8692    0.0000 C   0  0  0  0  0  0  0  0  0  0  0  0
   -4.7262    3.9555    0.0000 C   0  0  0  0  0  0  0  0  0  0  0  0
   -8.8250    3.3642    0.0000 H   0  0  0  0  0  0  0  0  0  0  0  0
   -8.6425    2.2119    0.0000 H   0  0  0  0  0  0  0  0  0  0  0  0
   -7.4901    2.3944    0.0000 H   0  0  0  0  0  0  0  0  0  0  0  0
   -6.5741    2.3584    0.0000 H   0  0  0  0  0  0  0  0  0  0  0  0
   -6.1903    3.1909    0.0000 H   0  0  0  0  0  0  0  0  0  0  0  0
   -6.8126    3.8640    0.0000 H   0  0  0  0  0  0  0  0  0  0  0  0
   -7.6366    4.4627    0.0000 H   0  0  0  0  0  0  0  0  0  0  0  0
   -8.4691    4.8465    0.0000 H   0  0  0  0  0  0  0  0  0  0  0  0
   -9.1423    4.2243    0.0000 H   0  0  0  0  0  0  0  0  0  0  0  0
   -6.2178    5.5491    0.0000 H   0  0  0  0  0  0  0  0  0  0  0  0
   -4.9124    6.1303    0.0000 H   0  0  0  0  0  0  0  0  0  0  0  0
   -3.2715    5.9578    0.0000 H   0  0  0  0  0  0  0  0  0  0  0  0
   -2.2199    5.8705    0.0000 H   0  0  0  0  0  0  0  0  0  0  0  0
    0.1343    3.9030    0.0000 H   0  0  0  0  0  0  0  0  0  0  0  0
    1.2190    5.8777    0.0000 H   0  0  0  0  0  0  0  0  0  0  0  0
    0.4785    5.8777    0.0000 H   0  0  0  0  0  0  0  0  0  0  0  0
    1.1930    3.9907    0.0000 H   0  0  0  0  0  0  0  0  0  0  0  0
    1.9335    3.9907    0.0000 H   0  0  0  0  0  0  0  0  0  0  0  0
    2.6480    5.8777    0.0000 H   0  0  0  0  0  0  0  0  0  0  0  0
    1.9074    5.8777    0.0000 H   0  0  0  0  0  0  0  0  0  0  0  0
    2.6219    3.9907    0.0000 H   0  0  0  0  0  0  0  0  0  0  0  0
    3.3624    3.9907    0.0000 H   0  0  0  0  0  0  0  0  0  0  0  0
    4.4211    3.9030    0.0000 H   0  0  0  0  0  0  0  0  0  0  0  0
    5.8501    4.7280    0.0000 H   0  0  0  0  0  0  0  0  0  0  0  0
   -3.5702    3.1156    0.0000 H   0  0  0  0  0  0  0  0  0  0  0  0
   -5.2112    3.2880    0.0000 H   0  0  0  0  0  0  0  0  0  0  0  0
  1  2  1  0  0  0  0
  2  3  1  0  0  0  0
  2  4  1  0  0  0  0
  2  5  1  0  0  0  0
  5  6  1  0  0  0  0
  6  7  2  0  0  0  0
  6  8  1  0  0  0  0
  8  9  1  0  0  0  0
  9 10  4  0  0  0  0
 10 11  4  0  0  0  0
 11 12  4  0  0  0  0
 12 13  1  0  0  0  0
 13 14  4  0  0  0  0
 14 15  4  0  0  0  0
 15 16  1  0  0  0  0
 16 17  2  0  0  0  0
 16 18  1  0  0  0  0
 18 19  1  0  0  0  0
 19 20  1  0  0  0  0
 20 21  1  0  0  0  0
 21 22  1  0  0  0  0
 22 23  1  0  0  0  0
 23 24  2  0  0  0  0
 23 25  1  0  0  0  0
 25 26  1  0  0  0  0
 15 27  4  0  0  0  0
 27 28  4  0  0  0  0
 13 28  4  0  0  0  0
 12 29  4  0  0  0  0
 29 30  4  0  0  0  0
  9 30  4  0  0  0  0
  1 31  1  0  0  0  0
  1 32  1  0  0  0  0
  1 33  1  0  0  0  0
  3 34  1  0  0  0  0
  3 35  1  0  0  0  0
  3 36  1  0  0  0  0
  4 37  1  0  0  0  0
  4 38  1  0  0  0  0
  4 39  1  0  0  0  0
  8 40  1  0  0  0  0
 10 41  1  0  0  0  0
 11 42  1  0  0  0  0
 14 43  1  0  0  0  0
 18 44  1  0  0  0  0
 19 45  1  0  0  0  0
 19 46  1  0  0  0  0
 20 47  1  0  0  0  0
 20 48  1  0  0  0  0
 21 49  1  0  0  0  0
 21 50  1  0  0  0  0
 22 51  1  0  0  0  0
 22 52  1  0  0  0  0
 25 53  1  0  0  0  0
 26 54  1  0  0  0  0
 29 55  1  0  0  0  0
 30 56  1  0  0  0  0
M  END
>  <Molecule ChEMBL ID>
CHEMBL467792

>  <Compound Key>
8

>  <Active>
0

>  <StandardizerResult>
Dearomatize (ID: Dearomatize)
Clear Stereo (ID: ClearStereo)
Wedge Clean (ID: WedgeClean)
Mesomerize (ID: Mesomerize)
Tautomerize (ID: Tautomerize)
Aromatize (ID: Aromatize)
Add Explicit Hydrogens (ID: AddExplicitH)
Neutralize (ID: Neutralize)
Clean 2D (ID: Clean2D)


$$$$

  Mrv1551102232211292D          

 52 55  0  0  0  0            999 V2000
    6.2270    4.3867    0.0000 C   0  0  0  0  0  0  0  0  0  0  0  0
    6.2270    3.5617    0.0000 O   0  0  0  0  0  0  0  0  0  0  0  0
    5.5126    3.1492    0.0000 C   0  0  0  0  0  0  0  0  0  0  0  0
    5.5126    2.3242    0.0000 C   0  0  0  0  0  0  0  0  0  0  0  0
    4.7981    1.9117    0.0000 C   0  0  0  0  0  0  0  0  0  0  0  0
    4.0836    2.3242    0.0000 C   0  0  0  0  0  0  0  0  0  0  0  0
    3.3691    1.9117    0.0000 C   0  0  0  0  0  0  0  0  0  0  0  0
    3.3691    1.0867    0.0000 C   0  0  0  0  0  0  0  0  0  0  0  0
    2.6547    0.6742    0.0000 C   0  0  0  0  0  0  0  0  0  0  0  0
    1.9402    1.0867    0.0000 C   0  0  0  0  0  0  0  0  0  0  0  0
    1.1556    0.8318    0.0000 C   0  0  0  0  0  0  0  0  0  0  0  0
    0.9006    0.0472    0.0000 N   0  0  0  0  0  0  0  0  0  0  0  0
    1.4527   -0.5659    0.0000 C   0  0  0  0  0  0  0  0  0  0  0  0
    2.2596   -0.3944    0.0000 O   0  0  0  0  0  0  0  0  0  0  0  0
    1.1977   -1.3506    0.0000 C   0  0  0  0  0  0  0  0  0  0  0  0
    1.7498   -1.9637    0.0000 C   0  0  0  0  0  0  0  0  0  0  0  0
    1.4948   -2.7483    0.0000 C   0  0  0  0  0  0  0  0  0  0  0  0
    0.6879   -2.9198    0.0000 C   0  0  0  0  0  0  0  0  0  0  0  0
    0.4329   -3.7044    0.0000 C   0  0  0  0  0  0  0  0  0  0  0  0
    0.9849   -4.3175    0.0000 O   0  0  0  0  0  0  0  0  0  0  0  0
   -0.3741   -3.8760    0.0000 N   0  0  0  0  0  0  0  0  0  0  0  0
   -0.6290   -4.6606    0.0000 O   0  0  0  0  0  0  0  0  0  0  0  0
    0.1358   -2.3067    0.0000 C   0  0  0  0  0  0  0  0  0  0  0  0
    0.3908   -1.5221    0.0000 C   0  0  0  0  0  0  0  0  0  0  0  0
    0.6707    1.4992    0.0000 N   0  0  0  0  0  0  0  0  0  0  0  0
    1.1556    2.1667    0.0000 N   0  0  0  0  0  0  0  0  0  0  0  0
    1.9402    1.9117    0.0000 C   0  0  0  0  0  0  0  0  0  0  0  0
    2.6547    2.3242    0.0000 C   0  0  0  0  0  0  0  0  0  0  0  0
    4.0836    3.1492    0.0000 C   0  0  0  0  0  0  0  0  0  0  0  0
    4.7981    3.5617    0.0000 C   0  0  0  0  0  0  0  0  0  0  0  0
    4.7981    4.3867    0.0000 O   0  0  0  0  0  0  0  0  0  0  0  0
    5.5126    4.7992    0.0000 C   0  0  0  0  0  0  0  0  0  0  0  0
    6.9415    3.9742    0.0000 H   0  0  0  0  0  0  0  0  0  0  0  0
    6.9415    4.7992    0.0000 H   0  0  0  0  0  0  0  0  0  0  0  0
    6.2270    5.2117    0.0000 H   0  0  0  0  0  0  0  0  0  0  0  0
    6.2270    1.9117    0.0000 H   0  0  0  0  0  0  0  0  0  0  0  0
    4.7981    1.0867    0.0000 H   0  0  0  0  0  0  0  0  0  0  0  0
    4.0836    0.6742    0.0000 H   0  0  0  0  0  0  0  0  0  0  0  0
    2.6547   -0.1508    0.0000 H   0  0  0  0  0  0  0  0  0  0  0  0
    0.0937   -0.1244    0.0000 H   0  0  0  0  0  0  0  0  0  0  0  0
    2.5567   -1.7921    0.0000 H   0  0  0  0  0  0  0  0  0  0  0  0
    2.0469   -3.3614    0.0000 H   0  0  0  0  0  0  0  0  0  0  0  0
   -0.9261   -3.2629    0.0000 H   0  0  0  0  0  0  0  0  0  0  0  0
   -1.4360   -4.8321    0.0000 H   0  0  0  0  0  0  0  0  0  0  0  0
   -0.6712   -2.4782    0.0000 H   0  0  0  0  0  0  0  0  0  0  0  0
   -0.1613   -0.9090    0.0000 H   0  0  0  0  0  0  0  0  0  0  0  0
   -0.1543    1.4992    0.0000 H   0  0  0  0  0  0  0  0  0  0  0  0
    2.6547    3.1492    0.0000 H   0  0  0  0  0  0  0  0  0  0  0  0
    3.3691    3.5617    0.0000 H   0  0  0  0  0  0  0  0  0  0  0  0
    5.3693    5.6117    0.0000 H   0  0  0  0  0  0  0  0  0  0  0  0
    4.8806    5.3295    0.0000 H   0  0  0  0  0  0  0  0  0  0  0  0
    5.5126    3.9742    0.0000 H   0  0  0  0  0  0  0  0  0  0  0  0
  1  2  1  0  0  0  0
  2  3  1  0  0  0  0
  3  4  4  0  0  0  0
  4  5  4  0  0  0  0
  5  6  4  0  0  0  0
  6  7  1  0  0  0  0
  7  8  4  0  0  0  0
  8  9  4  0  0  0  0
  9 10  4  0  0  0  0
 10 11  4  0  0  0  0
 11 12  1  0  0  0  0
 12 13  1  0  0  0  0
 13 14  2  0  0  0  0
 13 15  1  0  0  0  0
 15 16  4  0  0  0  0
 16 17  4  0  0  0  0
 17 18  4  0  0  0  0
 18 19  1  0  0  0  0
 19 20  2  0  0  0  0
 19 21  1  0  0  0  0
 21 22  1  0  0  0  0
 18 23  4  0  0  0  0
 23 24  4  0  0  0  0
 15 24  4  0  0  0  0
 11 25  4  0  0  0  0
 25 26  4  0  0  0  0
 26 27  4  0  0  0  0
 10 27  4  0  0  0  0
 27 28  4  0  0  0  0
  7 28  4  0  0  0  0
  6 29  4  0  0  0  0
 29 30  4  0  0  0  0
  3 30  4  0  0  0  0
 30 31  1  0  0  0  0
 31 32  1  0  0  0  0
  1 33  1  0  0  0  0
  1 34  1  0  0  0  0
  1 35  1  0  0  0  0
  4 36  1  0  0  0  0
  5 37  1  0  0  0  0
  8 38  1  0  0  0  0
  9 39  1  0  0  0  0
 12 40  1  0  0  0  0
 16 41  1  0  0  0  0
 17 42  1  0  0  0  0
 21 43  1  0  0  0  0
 22 44  1  0  0  0  0
 23 45  1  0  0  0  0
 24 46  1  0  0  0  0
 25 47  1  0  0  0  0
 28 48  1  0  0  0  0
 29 49  1  0  0  0  0
 32 50  1  0  0  0  0
 32 51  1  0  0  0  0
 32 52  1  0  0  0  0
M  END
>  <Molecule ChEMBL ID>
CHEMBL4211463

>  <Compound Key>
7x

>  <Active>
0

>  <StandardizerResult>
Dearomatize (ID: Dearomatize)
Clear Stereo (ID: ClearStereo)
Wedge Clean (ID: WedgeClean)
Mesomerize (ID: Mesomerize)
Tautomerize (ID: Tautomerize)
Aromatize (ID: Aromatize)
Add Explicit Hydrogens (ID: AddExplicitH)
Neutralize (ID: Neutralize)
Clean 2D (ID: Clean2D)


$$$$

  Mrv1551102232211292D          

 55 57  0  0  0  0            999 V2000
   -5.7067   -4.1177    0.0000 C   0  0  0  0  0  0  0  0  0  0  0  0
   -5.7067   -4.9427    0.0000 C   0  0  0  0  0  0  0  0  0  0  0  0
   -4.9922   -5.3552    0.0000 N   0  0  0  0  0  0  0  0  0  0  0  0
   -4.9922   -6.1802    0.0000 C   0  0  0  0  0  0  0  0  0  0  0  0
   -4.2777   -6.5927    0.0000 N   0  0  0  0  0  0  0  0  0  0  0  0
   -4.2777   -7.4177    0.0000 C   0  0  0  0  0  0  0  0  0  0  0  0
   -3.5632   -6.1802    0.0000 C   0  0  0  0  0  0  0  0  0  0  0  0
   -3.5632   -5.3552    0.0000 C   0  0  0  0  0  0  0  0  0  0  0  0
   -2.8488   -4.9427    0.0000 C   0  0  0  0  0  0  0  0  0  0  0  0
   -2.1343   -5.3552    0.0000 C   0  0  0  0  0  0  0  0  0  0  0  0
   -1.4198   -4.9427    0.0000 O   0  0  0  0  0  0  0  0  0  0  0  0
   -0.7054   -5.3552    0.0000 C   0  0  0  0  0  0  0  0  0  0  0  0
    0.0091   -4.9427    0.0000 C   0  0  0  0  0  0  0  0  0  0  0  0
    0.7236   -5.3552    0.0000 C   0  0  0  0  0  0  0  0  0  0  0  0
    1.4380   -4.9427    0.0000 C   0  0  0  0  0  0  0  0  0  0  0  0
    2.1525   -5.3552    0.0000 C   0  0  0  0  0  0  0  0  0  0  0  0
    2.8670   -4.9427    0.0000 C   0  0  0  0  0  0  0  0  0  0  0  0
    2.8670   -4.1177    0.0000 O   0  0  0  0  0  0  0  0  0  0  0  0
    3.5815   -5.3552    0.0000 N   0  0  0  0  0  0  0  0  0  0  0  0
    4.2959   -4.9427    0.0000 O   0  0  0  0  0  0  0  0  0  0  0  0
   -2.1343   -6.1802    0.0000 C   0  0  0  0  0  0  0  0  0  0  0  0
   -2.8488   -6.5927    0.0000 C   0  0  0  0  0  0  0  0  0  0  0  0
   -5.7067   -6.5927    0.0000 C   0  0  0  0  0  0  0  0  0  0  0  0
   -5.7067   -7.4177    0.0000 C   0  0  0  0  0  0  0  0  0  0  0  0
   -6.4211   -7.8302    0.0000 C   0  0  0  0  0  0  0  0  0  0  0  0
   -7.1356   -7.4177    0.0000 C   0  0  0  0  0  0  0  0  0  0  0  0
   -7.1356   -6.5927    0.0000 C   0  0  0  0  0  0  0  0  0  0  0  0
   -6.4211   -6.1802    0.0000 C   0  0  0  0  0  0  0  0  0  0  0  0
   -6.4211   -5.3552    0.0000 N   0  0  0  0  0  0  0  0  0  0  0  0
   -4.8817   -4.1177    0.0000 H   0  0  0  0  0  0  0  0  0  0  0  0
   -5.7067   -3.2927    0.0000 H   0  0  0  0  0  0  0  0  0  0  0  0
   -6.5317   -4.1177    0.0000 H   0  0  0  0  0  0  0  0  0  0  0  0
   -5.1027   -7.4177    0.0000 H   0  0  0  0  0  0  0  0  0  0  0  0
   -4.2777   -8.2427    0.0000 H   0  0  0  0  0  0  0  0  0  0  0  0
   -3.4527   -7.4177    0.0000 H   0  0  0  0  0  0  0  0  0  0  0  0
   -4.2777   -4.9427    0.0000 H   0  0  0  0  0  0  0  0  0  0  0  0
   -2.8488   -4.1177    0.0000 H   0  0  0  0  0  0  0  0  0  0  0  0
   -1.0756   -6.0924    0.0000 H   0  0  0  0  0  0  0  0  0  0  0  0
   -0.3351   -6.0924    0.0000 H   0  0  0  0  0  0  0  0  0  0  0  0
    0.3794   -4.2054    0.0000 H   0  0  0  0  0  0  0  0  0  0  0  0
   -0.3612   -4.2054    0.0000 H   0  0  0  0  0  0  0  0  0  0  0  0
    0.3533   -6.0924    0.0000 H   0  0  0  0  0  0  0  0  0  0  0  0
    1.0938   -6.0924    0.0000 H   0  0  0  0  0  0  0  0  0  0  0  0
    1.8083   -4.2054    0.0000 H   0  0  0  0  0  0  0  0  0  0  0  0
    1.0678   -4.2054    0.0000 H   0  0  0  0  0  0  0  0  0  0  0  0
    1.7823   -6.0924    0.0000 H   0  0  0  0  0  0  0  0  0  0  0  0
    2.5228   -6.0924    0.0000 H   0  0  0  0  0  0  0  0  0  0  0  0
    3.5815   -6.1802    0.0000 H   0  0  0  0  0  0  0  0  0  0  0  0
    5.0104   -5.3552    0.0000 H   0  0  0  0  0  0  0  0  0  0  0  0
   -1.4198   -6.5927    0.0000 H   0  0  0  0  0  0  0  0  0  0  0  0
   -2.8488   -7.4177    0.0000 H   0  0  0  0  0  0  0  0  0  0  0  0
   -5.4931   -8.2146    0.0000 H   0  0  0  0  0  0  0  0  0  0  0  0
   -6.4211   -8.6552    0.0000 H   0  0  0  0  0  0  0  0  0  0  0  0
   -7.8501   -7.8302    0.0000 H   0  0  0  0  0  0  0  0  0  0  0  0
   -7.8501   -6.1802    0.0000 H   0  0  0  0  0  0  0  0  0  0  0  0
  1  2  1  0  0  0  0
  2  3  4  0  0  0  0
  3  4  4  0  0  0  0
  4  5  1  0  0  0  0
  5  6  1  0  0  0  0
  5  7  1  0  0  0  0
  7  8  4  0  0  0  0
  8  9  4  0  0  0  0
  9 10  4  0  0  0  0
 10 11  1  0  0  0  0
 11 12  1  0  0  0  0
 12 13  1  0  0  0  0
 13 14  1  0  0  0  0
 14 15  1  0  0  0  0
 15 16  1  0  0  0  0
 16 17  1  0  0  0  0
 17 18  2  0  0  0  0
 17 19  1  0  0  0  0
 19 20  1  0  0  0  0
 10 21  4  0  0  0  0
 21 22  4  0  0  0  0
  7 22  4  0  0  0  0
  4 23  4  0  0  0  0
 23 24  4  0  0  0  0
 24 25  4  0  0  0  0
 25 26  4  0  0  0  0
 26 27  4  0  0  0  0
 27 28  4  0  0  0  0
 23 28  4  0  0  0  0
 28 29  4  0  0  0  0
  2 29  4  0  0  0  0
  1 30  1  0  0  0  0
  1 31  1  0  0  0  0
  1 32  1  0  0  0  0
  6 33  1  0  0  0  0
  6 34  1  0  0  0  0
  6 35  1  0  0  0  0
  8 36  1  0  0  0  0
  9 37  1  0  0  0  0
 12 38  1  0  0  0  0
 12 39  1  0  0  0  0
 13 40  1  0  0  0  0
 13 41  1  0  0  0  0
 14 42  1  0  0  0  0
 14 43  1  0  0  0  0
 15 44  1  0  0  0  0
 15 45  1  0  0  0  0
 16 46  1  0  0  0  0
 16 47  1  0  0  0  0
 19 48  1  0  0  0  0
 20 49  1  0  0  0  0
 21 50  1  0  0  0  0
 22 51  1  0  0  0  0
 24 52  1  0  0  0  0
 25 53  1  0  0  0  0
 26 54  1  0  0  0  0
 27 55  1  0  0  0  0
M  END
>  <Molecule ChEMBL ID>
CHEMBL3775409

>  <Compound Key>
7d

>  <Active>
0

>  <StandardizerResult>
Dearomatize (ID: Dearomatize)
Clear Stereo (ID: ClearStereo)
Wedge Clean (ID: WedgeClean)
Mesomerize (ID: Mesomerize)
Tautomerize (ID: Tautomerize)
Aromatize (ID: Aromatize)
Add Explicit Hydrogens (ID: AddExplicitH)
Neutralize (ID: Neutralize)
Clean 2D (ID: Clean2D)


$$$$

  Mrv1551102232211292D          

 46 48  0  0  0  0            999 V2000
    1.4416   -3.2944    0.0000 C   0  0  0  0  0  0  0  0  0  0  0  0
    2.1561   -3.7069    0.0000 N   0  0  0  0  0  0  0  0  0  0  0  0
    2.8706   -3.2944    0.0000 C   0  0  0  0  0  0  0  0  0  0  0  0
    2.8706   -2.4694    0.0000 C   0  0  0  0  0  0  0  0  0  0  0  0
    3.5850   -2.0569    0.0000 C   0  0  0  0  0  0  0  0  0  0  0  0
    4.2995   -2.4694    0.0000 C   0  0  0  0  0  0  0  0  0  0  0  0
    5.0140   -2.0569    0.0000 O   0  0  0  0  0  0  0  0  0  0  0  0
    5.7285   -2.4694    0.0000 C   0  0  0  0  0  0  0  0  0  0  0  0
    6.4429   -2.0569    0.0000 C   0  0  0  0  0  0  0  0  0  0  0  0
    7.1574   -2.4694    0.0000 C   0  0  0  0  0  0  0  0  0  0  0  0
    7.8719   -2.0569    0.0000 C   0  0  0  0  0  0  0  0  0  0  0  0
    7.8719   -1.2319    0.0000 O   0  0  0  0  0  0  0  0  0  0  0  0
    8.5863   -2.4694    0.0000 N   0  0  0  0  0  0  0  0  0  0  0  0
    9.3008   -2.0569    0.0000 O   0  0  0  0  0  0  0  0  0  0  0  0
    4.2995   -3.2944    0.0000 C   0  0  0  0  0  0  0  0  0  0  0  0
    3.5850   -3.7069    0.0000 C   0  0  0  0  0  0  0  0  0  0  0  0
    2.1561   -4.5319    0.0000 C   0  0  0  0  0  0  0  0  0  0  0  0
    2.8706   -4.9444    0.0000 N   0  0  0  0  0  0  0  0  0  0  0  0
    2.8706   -5.7694    0.0000 C   0  0  0  0  0  0  0  0  0  0  0  0
    2.1561   -6.1819    0.0000 N   0  0  0  0  0  0  0  0  0  0  0  0
    1.4416   -5.7694    0.0000 C   0  0  0  0  0  0  0  0  0  0  0  0
    0.7272   -6.1819    0.0000 C   0  0  0  0  0  0  0  0  0  0  0  0
    0.0127   -5.7694    0.0000 C   0  0  0  0  0  0  0  0  0  0  0  0
    0.0127   -4.9444    0.0000 C   0  0  0  0  0  0  0  0  0  0  0  0
    0.7272   -4.5319    0.0000 C   0  0  0  0  0  0  0  0  0  0  0  0
    1.4416   -4.9444    0.0000 C   0  0  0  0  0  0  0  0  0  0  0  0
    1.8541   -2.5799    0.0000 H   0  0  0  0  0  0  0  0  0  0  0  0
    0.7272   -2.8819    0.0000 H   0  0  0  0  0  0  0  0  0  0  0  0
    1.0291   -4.0088    0.0000 H   0  0  0  0  0  0  0  0  0  0  0  0
    2.1561   -2.0569    0.0000 H   0  0  0  0  0  0  0  0  0  0  0  0
    3.5850   -1.2319    0.0000 H   0  0  0  0  0  0  0  0  0  0  0  0
    5.3582   -3.2066    0.0000 H   0  0  0  0  0  0  0  0  0  0  0  0
    6.0987   -3.2066    0.0000 H   0  0  0  0  0  0  0  0  0  0  0  0
    6.8132   -1.3196    0.0000 H   0  0  0  0  0  0  0  0  0  0  0  0
    6.0727   -1.3196    0.0000 H   0  0  0  0  0  0  0  0  0  0  0  0
    6.7871   -3.2066    0.0000 H   0  0  0  0  0  0  0  0  0  0  0  0
    7.5277   -3.2066    0.0000 H   0  0  0  0  0  0  0  0  0  0  0  0
    8.5863   -3.2944    0.0000 H   0  0  0  0  0  0  0  0  0  0  0  0
   10.0153   -2.4694    0.0000 H   0  0  0  0  0  0  0  0  0  0  0  0
    5.0140   -3.7069    0.0000 H   0  0  0  0  0  0  0  0  0  0  0  0
    3.5850   -4.5319    0.0000 H   0  0  0  0  0  0  0  0  0  0  0  0
    3.5850   -6.1819    0.0000 H   0  0  0  0  0  0  0  0  0  0  0  0
    0.7272   -7.0069    0.0000 H   0  0  0  0  0  0  0  0  0  0  0  0
   -0.7018   -6.1819    0.0000 H   0  0  0  0  0  0  0  0  0  0  0  0
   -0.7018   -4.5319    0.0000 H   0  0  0  0  0  0  0  0  0  0  0  0
    0.1438   -3.9485    0.0000 H   0  0  0  0  0  0  0  0  0  0  0  0
  1  2  1  0  0  0  0
  2  3  1  0  0  0  0
  3  4  4  0  0  0  0
  4  5  4  0  0  0  0
  5  6  4  0  0  0  0
  6  7  1  0  0  0  0
  7  8  1  0  0  0  0
  8  9  1  0  0  0  0
  9 10  1  0  0  0  0
 10 11  1  0  0  0  0
 11 12  2  0  0  0  0
 11 13  1  0  0  0  0
 13 14  1  0  0  0  0
  6 15  4  0  0  0  0
 15 16  4  0  0  0  0
  3 16  4  0  0  0  0
  2 17  1  0  0  0  0
 17 18  4  0  0  0  0
 18 19  4  0  0  0  0
 19 20  4  0  0  0  0
 20 21  4  0  0  0  0
 21 22  4  0  0  0  0
 22 23  4  0  0  0  0
 23 24  4  0  0  0  0
 24 25  4  0  0  0  0
 25 26  4  0  0  0  0
 17 26  4  0  0  0  0
 21 26  4  0  0  0  0
  1 27  1  0  0  0  0
  1 28  1  0  0  0  0
  1 29  1  0  0  0  0
  4 30  1  0  0  0  0
  5 31  1  0  0  0  0
  8 32  1  0  0  0  0
  8 33  1  0  0  0  0
  9 34  1  0  0  0  0
  9 35  1  0  0  0  0
 10 36  1  0  0  0  0
 10 37  1  0  0  0  0
 13 38  1  0  0  0  0
 14 39  1  0  0  0  0
 15 40  1  0  0  0  0
 16 41  1  0  0  0  0
 19 42  1  0  0  0  0
 22 43  1  0  0  0  0
 23 44  1  0  0  0  0
 24 45  1  0  0  0  0
 25 46  1  0  0  0  0
M  END
>  <Molecule ChEMBL ID>
CHEMBL3775209

>  <Compound Key>
10b

>  <Active>
0

>  <StandardizerResult>
Dearomatize (ID: Dearomatize)
Clear Stereo (ID: ClearStereo)
Wedge Clean (ID: WedgeClean)
Mesomerize (ID: Mesomerize)
Tautomerize (ID: Tautomerize)
Aromatize (ID: Aromatize)
Add Explicit Hydrogens (ID: AddExplicitH)
Neutralize (ID: Neutralize)
Clean 2D (ID: Clean2D)


$$$$

  Mrv1551102232211292D          

 51 54  0  0  0  0            999 V2000
    5.4954    5.6481    0.0000 C   0  0  0  0  0  0  0  0  0  0  0  0
    5.4954    4.8231    0.0000 C   0  0  0  0  0  0  0  0  0  0  0  0
    4.7809    4.4106    0.0000 O   0  0  0  0  0  0  0  0  0  0  0  0
    4.7809    3.5856    0.0000 C   0  0  0  0  0  0  0  0  0  0  0  0
    5.4954    3.1731    0.0000 C   0  0  0  0  0  0  0  0  0  0  0  0
    5.4954    2.3481    0.0000 C   0  0  0  0  0  0  0  0  0  0  0  0
    4.7809    1.9356    0.0000 C   0  0  0  0  0  0  0  0  0  0  0  0
    4.0665    2.3481    0.0000 C   0  0  0  0  0  0  0  0  0  0  0  0
    3.3520    1.9356    0.0000 C   0  0  0  0  0  0  0  0  0  0  0  0
    3.3520    1.1106    0.0000 C   0  0  0  0  0  0  0  0  0  0  0  0
    2.6375    0.6981    0.0000 C   0  0  0  0  0  0  0  0  0  0  0  0
    1.9230    1.1106    0.0000 C   0  0  0  0  0  0  0  0  0  0  0  0
    1.1384    0.8557    0.0000 C   0  0  0  0  0  0  0  0  0  0  0  0
    0.8835    0.0710    0.0000 N   0  0  0  0  0  0  0  0  0  0  0  0
    1.4355   -0.5421    0.0000 C   0  0  0  0  0  0  0  0  0  0  0  0
    2.2425   -0.3705    0.0000 O   0  0  0  0  0  0  0  0  0  0  0  0
    1.1806   -1.3267    0.0000 C   0  0  0  0  0  0  0  0  0  0  0  0
    1.7326   -1.9398    0.0000 C   0  0  0  0  0  0  0  0  0  0  0  0
    1.4777   -2.7244    0.0000 C   0  0  0  0  0  0  0  0  0  0  0  0
    0.6707   -2.8959    0.0000 C   0  0  0  0  0  0  0  0  0  0  0  0
    0.4158   -3.6805    0.0000 C   0  0  0  0  0  0  0  0  0  0  0  0
    0.9678   -4.2936    0.0000 O   0  0  0  0  0  0  0  0  0  0  0  0
   -0.3912   -3.8521    0.0000 N   0  0  0  0  0  0  0  0  0  0  0  0
   -0.6462   -4.6367    0.0000 O   0  0  0  0  0  0  0  0  0  0  0  0
    0.1187   -2.2828    0.0000 C   0  0  0  0  0  0  0  0  0  0  0  0
    0.3736   -1.4982    0.0000 C   0  0  0  0  0  0  0  0  0  0  0  0
    0.6535    1.5231    0.0000 N   0  0  0  0  0  0  0  0  0  0  0  0
    1.1384    2.1905    0.0000 N   0  0  0  0  0  0  0  0  0  0  0  0
    1.9230    1.9356    0.0000 C   0  0  0  0  0  0  0  0  0  0  0  0
    2.6375    2.3481    0.0000 C   0  0  0  0  0  0  0  0  0  0  0  0
    4.0665    3.1731    0.0000 C   0  0  0  0  0  0  0  0  0  0  0  0
    6.3204    5.6481    0.0000 H   0  0  0  0  0  0  0  0  0  0  0  0
    5.4954    6.4731    0.0000 H   0  0  0  0  0  0  0  0  0  0  0  0
    4.6704    5.6481    0.0000 H   0  0  0  0  0  0  0  0  0  0  0  0
    5.9487    4.1338    0.0000 H   0  0  0  0  0  0  0  0  0  0  0  0
    6.3190    4.7751    0.0000 H   0  0  0  0  0  0  0  0  0  0  0  0
    6.2099    3.5856    0.0000 H   0  0  0  0  0  0  0  0  0  0  0  0
    6.2099    1.9356    0.0000 H   0  0  0  0  0  0  0  0  0  0  0  0
    4.7809    1.1106    0.0000 H   0  0  0  0  0  0  0  0  0  0  0  0
    4.0665    0.6981    0.0000 H   0  0  0  0  0  0  0  0  0  0  0  0
    2.6375   -0.1269    0.0000 H   0  0  0  0  0  0  0  0  0  0  0  0
    0.0765   -0.1005    0.0000 H   0  0  0  0  0  0  0  0  0  0  0  0
    2.5396   -1.7683    0.0000 H   0  0  0  0  0  0  0  0  0  0  0  0
    2.0297   -3.3375    0.0000 H   0  0  0  0  0  0  0  0  0  0  0  0
   -0.9432   -3.2390    0.0000 H   0  0  0  0  0  0  0  0  0  0  0  0
   -1.4531   -4.8082    0.0000 H   0  0  0  0  0  0  0  0  0  0  0  0
   -0.6883   -2.4544    0.0000 H   0  0  0  0  0  0  0  0  0  0  0  0
   -0.1784   -0.8851    0.0000 H   0  0  0  0  0  0  0  0  0  0  0  0
   -0.1715    1.5231    0.0000 H   0  0  0  0  0  0  0  0  0  0  0  0
    2.6375    3.1731    0.0000 H   0  0  0  0  0  0  0  0  0  0  0  0
    3.3520    3.5856    0.0000 H   0  0  0  0  0  0  0  0  0  0  0  0
  1  2  1  0  0  0  0
  2  3  1  0  0  0  0
  3  4  1  0  0  0  0
  4  5  4  0  0  0  0
  5  6  4  0  0  0  0
  6  7  4  0  0  0  0
  7  8  4  0  0  0  0
  8  9  1  0  0  0  0
  9 10  4  0  0  0  0
 10 11  4  0  0  0  0
 11 12  4  0  0  0  0
 12 13  4  0  0  0  0
 13 14  1  0  0  0  0
 14 15  1  0  0  0  0
 15 16  2  0  0  0  0
 15 17  1  0  0  0  0
 17 18  4  0  0  0  0
 18 19  4  0  0  0  0
 19 20  4  0  0  0  0
 20 21  1  0  0  0  0
 21 22  2  0  0  0  0
 21 23  1  0  0  0  0
 23 24  1  0  0  0  0
 20 25  4  0  0  0  0
 25 26  4  0  0  0  0
 17 26  4  0  0  0  0
 13 27  4  0  0  0  0
 27 28  4  0  0  0  0
 28 29  4  0  0  0  0
 12 29  4  0  0  0  0
 29 30  4  0  0  0  0
  9 30  4  0  0  0  0
  8 31  4  0  0  0  0
  4 31  4  0  0  0  0
  1 32  1  0  0  0  0
  1 33  1  0  0  0  0
  1 34  1  0  0  0  0
  2 35  1  0  0  0  0
  2 36  1  0  0  0  0
  5 37  1  0  0  0  0
  6 38  1  0  0  0  0
  7 39  1  0  0  0  0
 10 40  1  0  0  0  0
 11 41  1  0  0  0  0
 14 42  1  0  0  0  0
 18 43  1  0  0  0  0
 19 44  1  0  0  0  0
 23 45  1  0  0  0  0
 24 46  1  0  0  0  0
 25 47  1  0  0  0  0
 26 48  1  0  0  0  0
 27 49  1  0  0  0  0
 30 50  1  0  0  0  0
 31 51  1  0  0  0  0
M  END
>  <Molecule ChEMBL ID>
CHEMBL4203874

>  <Compound Key>
7j

>  <Active>
0

>  <StandardizerResult>
Dearomatize (ID: Dearomatize)
Clear Stereo (ID: ClearStereo)
Wedge Clean (ID: WedgeClean)
Mesomerize (ID: Mesomerize)
Tautomerize (ID: Tautomerize)
Aromatize (ID: Aromatize)
Add Explicit Hydrogens (ID: AddExplicitH)
Neutralize (ID: Neutralize)
Clean 2D (ID: Clean2D)


$$$$

  Mrv1551102232211292D          

 41 42  0  0  0  0            999 V2000
   -5.8640    4.8206    0.0000 N   0  0  0  0  0  0  0  0  0  0  0  0
   -5.0435    4.7344    0.0000 C   0  0  0  0  0  0  0  0  0  0  0  0
   -4.5586    5.4018    0.0000 C   0  0  0  0  0  0  0  0  0  0  0  0
   -3.7381    5.3156    0.0000 C   0  0  0  0  0  0  0  0  0  0  0  0
   -3.4025    4.5619    0.0000 C   0  0  0  0  0  0  0  0  0  0  0  0
   -2.5820    4.4757    0.0000 C   0  0  0  0  0  0  0  0  0  0  0  0
   -2.0300    5.0887    0.0000 C   0  0  0  0  0  0  0  0  0  0  0  0
   -1.2763    4.7532    0.0000 C   0  0  0  0  0  0  0  0  0  0  0  0
   -0.5619    5.1657    0.0000 C   0  0  0  0  0  0  0  0  0  0  0  0
   -0.5619    5.9907    0.0000 O   0  0  0  0  0  0  0  0  0  0  0  0
    0.1526    4.7532    0.0000 N   0  0  0  0  0  0  0  0  0  0  0  0
    0.8671    5.1657    0.0000 C   0  0  0  0  0  0  0  0  0  0  0  0
    1.5815    4.7532    0.0000 C   0  0  0  0  0  0  0  0  0  0  0  0
    2.2960    5.1657    0.0000 C   0  0  0  0  0  0  0  0  0  0  0  0
    3.0105    4.7532    0.0000 C   0  0  0  0  0  0  0  0  0  0  0  0
    3.7250    5.1657    0.0000 C   0  0  0  0  0  0  0  0  0  0  0  0
    3.7250    5.9907    0.0000 O   0  0  0  0  0  0  0  0  0  0  0  0
    4.4394    4.7532    0.0000 N   0  0  0  0  0  0  0  0  0  0  0  0
    5.1539    5.1657    0.0000 O   0  0  0  0  0  0  0  0  0  0  0  0
   -1.3626    3.9327    0.0000 N   0  0  0  0  0  0  0  0  0  0  0  0
   -2.1695    3.7612    0.0000 O   0  0  0  0  0  0  0  0  0  0  0  0
   -3.8875    3.8944    0.0000 C   0  0  0  0  0  0  0  0  0  0  0  0
   -4.7079    3.9807    0.0000 C   0  0  0  0  0  0  0  0  0  0  0  0
   -6.1995    5.5743    0.0000 H   0  0  0  0  0  0  0  0  0  0  0  0
   -6.3489    4.1532    0.0000 H   0  0  0  0  0  0  0  0  0  0  0  0
   -4.8941    6.1555    0.0000 H   0  0  0  0  0  0  0  0  0  0  0  0
   -3.2532    5.9830    0.0000 H   0  0  0  0  0  0  0  0  0  0  0  0
   -2.2015    5.8957    0.0000 H   0  0  0  0  0  0  0  0  0  0  0  0
    0.1526    3.9282    0.0000 H   0  0  0  0  0  0  0  0  0  0  0  0
    1.2373    5.9029    0.0000 H   0  0  0  0  0  0  0  0  0  0  0  0
    0.4968    5.9029    0.0000 H   0  0  0  0  0  0  0  0  0  0  0  0
    1.2113    4.0159    0.0000 H   0  0  0  0  0  0  0  0  0  0  0  0
    1.9518    4.0159    0.0000 H   0  0  0  0  0  0  0  0  0  0  0  0
    2.6663    5.9029    0.0000 H   0  0  0  0  0  0  0  0  0  0  0  0
    1.9258    5.9029    0.0000 H   0  0  0  0  0  0  0  0  0  0  0  0
    2.6402    4.0159    0.0000 H   0  0  0  0  0  0  0  0  0  0  0  0
    3.3807    4.0159    0.0000 H   0  0  0  0  0  0  0  0  0  0  0  0
    4.4394    3.9282    0.0000 H   0  0  0  0  0  0  0  0  0  0  0  0
    5.8684    4.7532    0.0000 H   0  0  0  0  0  0  0  0  0  0  0  0
   -3.5519    3.1408    0.0000 H   0  0  0  0  0  0  0  0  0  0  0  0
   -5.1929    3.3132    0.0000 H   0  0  0  0  0  0  0  0  0  0  0  0
  1  2  1  0  0  0  0
  2  3  4  0  0  0  0
  3  4  4  0  0  0  0
  4  5  4  0  0  0  0
  5  6  1  0  0  0  0
  6  7  4  0  0  0  0
  7  8  4  0  0  0  0
  8  9  1  0  0  0  0
  9 10  2  0  0  0  0
  9 11  1  0  0  0  0
 11 12  1  0  0  0  0
 12 13  1  0  0  0  0
 13 14  1  0  0  0  0
 14 15  1  0  0  0  0
 15 16  1  0  0  0  0
 16 17  2  0  0  0  0
 16 18  1  0  0  0  0
 18 19  1  0  0  0  0
  8 20  4  0  0  0  0
 20 21  4  0  0  0  0
  6 21  4  0  0  0  0
  5 22  4  0  0  0  0
 22 23  4  0  0  0  0
  2 23  4  0  0  0  0
  1 24  1  0  0  0  0
  1 25  1  0  0  0  0
  3 26  1  0  0  0  0
  4 27  1  0  0  0  0
  7 28  1  0  0  0  0
 11 29  1  0  0  0  0
 12 30  1  0  0  0  0
 12 31  1  0  0  0  0
 13 32  1  0  0  0  0
 13 33  1  0  0  0  0
 14 34  1  0  0  0  0
 14 35  1  0  0  0  0
 15 36  1  0  0  0  0
 15 37  1  0  0  0  0
 18 38  1  0  0  0  0
 19 39  1  0  0  0  0
 22 40  1  0  0  0  0
 23 41  1  0  0  0  0
M  END
>  <Molecule ChEMBL ID>
CHEMBL468841

>  <Compound Key>
10

>  <Active>
0

>  <StandardizerResult>
Dearomatize (ID: Dearomatize)
Clear Stereo (ID: ClearStereo)
Wedge Clean (ID: WedgeClean)
Mesomerize (ID: Mesomerize)
Tautomerize (ID: Tautomerize)
Aromatize (ID: Aromatize)
Add Explicit Hydrogens (ID: AddExplicitH)
Neutralize (ID: Neutralize)
Clean 2D (ID: Clean2D)


$$$$

  Mrv1551102232211292D          

 40 41  0  0  0  0            999 V2000
   -4.2868   -5.7750    0.0000 O   0  0  0  0  0  0  0  0  0  0  0  0
   -4.2868   -4.9500    0.0000 C   0  0  0  0  0  0  0  0  0  0  0  0
   -3.5724   -4.5375    0.0000 C   0  0  0  0  0  0  0  0  0  0  0  0
   -3.5724   -3.7125    0.0000 C   0  0  0  0  0  0  0  0  0  0  0  0
   -2.8579   -3.3000    0.0000 C   0  0  0  0  0  0  0  0  0  0  0  0
   -2.8579   -2.4750    0.0000 C   0  0  0  0  0  0  0  0  0  0  0  0
   -2.1434   -2.0625    0.0000 C   0  0  0  0  0  0  0  0  0  0  0  0
   -1.4289   -2.4750    0.0000 C   0  0  0  0  0  0  0  0  0  0  0  0
   -0.7145   -2.0625    0.0000 C   0  0  0  0  0  0  0  0  0  0  0  0
   -0.0000   -2.4750    0.0000 C   0  0  0  0  0  0  0  0  0  0  0  0
    0.7145   -2.0625    0.0000 N   0  0  0  0  0  0  0  0  0  0  0  0
    1.4289   -2.4750    0.0000 C   0  0  0  0  0  0  0  0  0  0  0  0
    1.4289   -3.3000    0.0000 O   0  0  0  0  0  0  0  0  0  0  0  0
    2.1434   -2.0625    0.0000 C   0  0  0  0  0  0  0  0  0  0  0  0
    2.1434   -1.2375    0.0000 C   0  0  0  0  0  0  0  0  0  0  0  0
    2.8579   -0.8250    0.0000 N   0  0  0  0  0  0  0  0  0  0  0  0
    3.5724   -1.2375    0.0000 C   0  0  0  0  0  0  0  0  0  0  0  0
    3.5724   -2.0625    0.0000 C   0  0  0  0  0  0  0  0  0  0  0  0
    4.2868   -2.4750    0.0000 F   0  0  0  0  0  0  0  0  0  0  0  0
    2.8579   -2.4750    0.0000 C   0  0  0  0  0  0  0  0  0  0  0  0
   -1.4289   -3.3000    0.0000 C   0  0  0  0  0  0  0  0  0  0  0  0
   -2.1434   -3.7125    0.0000 C   0  0  0  0  0  0  0  0  0  0  0  0
   -5.0013   -4.5375    0.0000 N   0  0  0  0  0  0  0  0  0  0  0  0
   -5.7158   -4.9500    0.0000 O   0  0  0  0  0  0  0  0  0  0  0  0
   -2.8579   -4.9500    0.0000 H   0  0  0  0  0  0  0  0  0  0  0  0
   -4.2868   -3.3000    0.0000 H   0  0  0  0  0  0  0  0  0  0  0  0
   -3.5724   -2.0625    0.0000 H   0  0  0  0  0  0  0  0  0  0  0  0
   -2.1434   -1.2375    0.0000 H   0  0  0  0  0  0  0  0  0  0  0  0
   -0.3442   -1.3253    0.0000 H   0  0  0  0  0  0  0  0  0  0  0  0
   -1.0847   -1.3253    0.0000 H   0  0  0  0  0  0  0  0  0  0  0  0
   -0.3703   -3.2122    0.0000 H   0  0  0  0  0  0  0  0  0  0  0  0
    0.3703   -3.2122    0.0000 H   0  0  0  0  0  0  0  0  0  0  0  0
    0.7145   -1.2375    0.0000 H   0  0  0  0  0  0  0  0  0  0  0  0
    1.4289   -0.8250    0.0000 H   0  0  0  0  0  0  0  0  0  0  0  0
    4.2868   -0.8250    0.0000 H   0  0  0  0  0  0  0  0  0  0  0  0
    2.8579   -3.3000    0.0000 H   0  0  0  0  0  0  0  0  0  0  0  0
   -0.7145   -3.7125    0.0000 H   0  0  0  0  0  0  0  0  0  0  0  0
   -2.1434   -4.5375    0.0000 H   0  0  0  0  0  0  0  0  0  0  0  0
   -5.0013   -3.7125    0.0000 H   0  0  0  0  0  0  0  0  0  0  0  0
   -6.4302   -4.5375    0.0000 H   0  0  0  0  0  0  0  0  0  0  0  0
  1  2  2  0  0  0  0
  3  2  1  4  0  0  0
  3  4  2  0  0  0  0
  4  5  1  0  0  0  0
  5  6  4  0  0  0  0
  6  7  4  0  0  0  0
  7  8  4  0  0  0  0
  8  9  1  0  0  0  0
  9 10  1  0  0  0  0
 10 11  1  0  0  0  0
 11 12  1  0  0  0  0
 12 13  2  0  0  0  0
 12 14  1  0  0  0  0
 14 15  4  0  0  0  0
 15 16  4  0  0  0  0
 16 17  4  0  0  0  0
 17 18  4  0  0  0  0
 18 19  1  0  0  0  0
 18 20  4  0  0  0  0
 14 20  4  0  0  0  0
  8 21  4  0  0  0  0
 21 22  4  0  0  0  0
  5 22  4  0  0  0  0
  2 23  1  0  0  0  0
 23 24  1  0  0  0  0
  3 25  1  0  0  0  0
  4 26  1  0  0  0  0
  6 27  1  0  0  0  0
  7 28  1  0  0  0  0
  9 29  1  0  0  0  0
  9 30  1  0  0  0  0
 10 31  1  0  0  0  0
 10 32  1  0  0  0  0
 11 33  1  0  0  0  0
 15 34  1  0  0  0  0
 17 35  1  0  0  0  0
 20 36  1  0  0  0  0
 21 37  1  0  0  0  0
 22 38  1  0  0  0  0
 23 39  1  0  0  0  0
 24 40  1  0  0  0  0
M  END
>  <Molecule ChEMBL ID>
CHEMBL4069669

>  <Compound Key>
15e

>  <Active>
0

>  <StandardizerResult>
Dearomatize (ID: Dearomatize)
Clear Stereo (ID: ClearStereo)
Wedge Clean (ID: WedgeClean)
Mesomerize (ID: Mesomerize)
Tautomerize (ID: Tautomerize)
Aromatize (ID: Aromatize)
Add Explicit Hydrogens (ID: AddExplicitH)
Neutralize (ID: Neutralize)
Clean 2D (ID: Clean2D)


$$$$

  Mrv1551102232211292D          

 44 46  0  0  0  0            999 V2000
    0.7152   -7.8379    0.0000 O   0  0  0  0  0  0  0  0  0  0  0  0
    0.0007   -7.4254    0.0000 C   0  0  0  0  0  0  0  0  0  0  0  0
    0.0007   -6.6004    0.0000 C   0  0  0  0  0  0  0  0  0  0  0  0
   -0.7138   -6.1879    0.0000 C   0  0  0  0  0  0  0  0  0  0  0  0
   -0.7138   -5.3629    0.0000 C   0  0  0  0  0  0  0  0  0  0  0  0
   -1.4282   -4.9504    0.0000 C   0  0  0  0  0  0  0  0  0  0  0  0
   -1.4282   -4.1254    0.0000 C   0  0  0  0  0  0  0  0  0  0  0  0
   -0.7138   -3.7129    0.0000 C   0  0  0  0  0  0  0  0  0  0  0  0
   -0.7138   -2.8879    0.0000 C   0  0  0  0  0  0  0  0  0  0  0  0
    0.0007   -2.4754    0.0000 N   0  0  0  0  0  0  0  0  0  0  0  0
    0.0007   -1.6504    0.0000 C   0  0  0  0  0  0  0  0  0  0  0  0
    0.7152   -1.2379    0.0000 C   0  0  0  0  0  0  0  0  0  0  0  0
    0.7152   -0.4129    0.0000 C   0  0  0  0  0  0  0  0  0  0  0  0
    1.4296   -0.0004    0.0000 C   0  0  0  0  0  0  0  0  0  0  0  0
    2.1441   -0.4129    0.0000 C   0  0  0  0  0  0  0  0  0  0  0  0
    2.8586   -0.0004    0.0000 C   0  0  0  0  0  0  0  0  0  0  0  0
    3.5730   -0.4129    0.0000 C   0  0  0  0  0  0  0  0  0  0  0  0
    3.5730   -1.2379    0.0000 C   0  0  0  0  0  0  0  0  0  0  0  0
    2.8586   -1.6504    0.0000 C   0  0  0  0  0  0  0  0  0  0  0  0
    2.8586   -2.4754    0.0000 Cl  0  0  0  0  0  0  0  0  0  0  0  0
    2.1441   -1.2379    0.0000 C   0  0  0  0  0  0  0  0  0  0  0  0
    1.4296   -1.6504    0.0000 N   0  0  0  0  0  0  0  0  0  0  0  0
    0.0007   -4.1254    0.0000 C   0  0  0  0  0  0  0  0  0  0  0  0
    0.0007   -4.9504    0.0000 C   0  0  0  0  0  0  0  0  0  0  0  0
   -0.7138   -7.8379    0.0000 N   0  0  0  0  0  0  0  0  0  0  0  0
   -0.7138   -8.6629    0.0000 O   0  0  0  0  0  0  0  0  0  0  0  0
    0.7152   -6.1879    0.0000 H   0  0  0  0  0  0  0  0  0  0  0  0
   -1.4282   -6.6004    0.0000 H   0  0  0  0  0  0  0  0  0  0  0  0
   -2.1427   -5.3629    0.0000 H   0  0  0  0  0  0  0  0  0  0  0  0
   -2.1427   -3.7129    0.0000 H   0  0  0  0  0  0  0  0  0  0  0  0
   -1.1671   -2.1986    0.0000 H   0  0  0  0  0  0  0  0  0  0  0  0
   -1.5374   -2.8399    0.0000 H   0  0  0  0  0  0  0  0  0  0  0  0
    0.7152   -2.8879    0.0000 H   0  0  0  0  0  0  0  0  0  0  0  0
   -0.4527   -0.9611    0.0000 H   0  0  0  0  0  0  0  0  0  0  0  0
   -0.8229   -1.6024    0.0000 H   0  0  0  0  0  0  0  0  0  0  0  0
    0.0007   -0.0004    0.0000 H   0  0  0  0  0  0  0  0  0  0  0  0
    1.4296    0.8246    0.0000 H   0  0  0  0  0  0  0  0  0  0  0  0
    2.8586    0.8246    0.0000 H   0  0  0  0  0  0  0  0  0  0  0  0
    4.2875   -0.0004    0.0000 H   0  0  0  0  0  0  0  0  0  0  0  0
    4.2875   -1.6504    0.0000 H   0  0  0  0  0  0  0  0  0  0  0  0
    0.7152   -3.7129    0.0000 H   0  0  0  0  0  0  0  0  0  0  0  0
    0.7152   -5.3629    0.0000 H   0  0  0  0  0  0  0  0  0  0  0  0
   -1.4282   -7.4254    0.0000 H   0  0  0  0  0  0  0  0  0  0  0  0
   -1.4282   -9.0754    0.0000 H   0  0  0  0  0  0  0  0  0  0  0  0
  1  2  2  0  0  0  0
  3  2  1  4  0  0  0
  3  4  2  0  0  0  0
  4  5  1  0  0  0  0
  5  6  4  0  0  0  0
  6  7  4  0  0  0  0
  7  8  4  0  0  0  0
  8  9  1  0  0  0  0
  9 10  1  0  0  0  0
 10 11  1  0  0  0  0
 11 12  1  0  0  0  0
 12 13  4  0  0  0  0
 13 14  4  0  0  0  0
 14 15  4  0  0  0  0
 15 16  4  0  0  0  0
 16 17  4  0  0  0  0
 17 18  4  0  0  0  0
 18 19  4  0  0  0  0
 19 20  1  0  0  0  0
 19 21  4  0  0  0  0
 15 21  4  0  0  0  0
 21 22  4  0  0  0  0
 12 22  4  0  0  0  0
  8 23  4  0  0  0  0
 23 24  4  0  0  0  0
  5 24  4  0  0  0  0
  2 25  1  0  0  0  0
 25 26  1  0  0  0  0
  3 27  1  0  0  0  0
  4 28  1  0  0  0  0
  6 29  1  0  0  0  0
  7 30  1  0  0  0  0
  9 31  1  0  0  0  0
  9 32  1  0  0  0  0
 10 33  1  0  0  0  0
 11 34  1  0  0  0  0
 11 35  1  0  0  0  0
 13 36  1  0  0  0  0
 14 37  1  0  0  0  0
 16 38  1  0  0  0  0
 17 39  1  0  0  0  0
 18 40  1  0  0  0  0
 23 41  1  0  0  0  0
 24 42  1  0  0  0  0
 25 43  1  0  0  0  0
 26 44  1  0  0  0  0
M  END
>  <Molecule ChEMBL ID>
CHEMBL4094579

>  <Compound Key>
4e

>  <Active>
0

>  <StandardizerResult>
Dearomatize (ID: Dearomatize)
Clear Stereo (ID: ClearStereo)
Wedge Clean (ID: WedgeClean)
Mesomerize (ID: Mesomerize)
Tautomerize (ID: Tautomerize)
Aromatize (ID: Aromatize)
Add Explicit Hydrogens (ID: AddExplicitH)
Neutralize (ID: Neutralize)
Clean 2D (ID: Clean2D)


$$$$

  Mrv1551102232211292D          

 45 46  0  0  0  0            999 V2000
   -0.7145   -4.5375    0.0000 C   0  0  0  0  0  0  0  0  0  0  0  0
   -0.7145   -3.7125    0.0000 O   0  0  0  0  0  0  0  0  0  0  0  0
   -1.4289   -3.3000    0.0000 C   0  0  0  0  0  0  0  0  0  0  0  0
   -2.1434   -3.7125    0.0000 C   0  0  0  0  0  0  0  0  0  0  0  0
   -2.8579   -3.3000    0.0000 C   0  0  0  0  0  0  0  0  0  0  0  0
   -2.8579   -2.4750    0.0000 C   0  0  0  0  0  0  0  0  0  0  0  0
   -3.5724   -2.0625    0.0000 Cl  0  0  0  0  0  0  0  0  0  0  0  0
   -2.1434   -2.0625    0.0000 C   0  0  0  0  0  0  0  0  0  0  0  0
   -1.4289   -2.4750    0.0000 C   0  0  0  0  0  0  0  0  0  0  0  0
   -0.7145   -2.0625    0.0000 C   0  0  0  0  0  0  0  0  0  0  0  0
   -0.7145   -1.2375    0.0000 O   0  0  0  0  0  0  0  0  0  0  0  0
   -0.0000   -2.4750    0.0000 N   0  0  0  0  0  0  0  0  0  0  0  0
    0.7145   -2.0625    0.0000 C   0  0  0  0  0  0  0  0  0  0  0  0
    1.4289   -2.4750    0.0000 C   0  0  0  0  0  0  0  0  0  0  0  0
    2.1434   -2.0625    0.0000 C   0  0  0  0  0  0  0  0  0  0  0  0
    2.1434   -1.2375    0.0000 C   0  0  0  0  0  0  0  0  0  0  0  0
    2.8579   -0.8250    0.0000 C   0  0  0  0  0  0  0  0  0  0  0  0
    3.5724   -1.2375    0.0000 C   0  0  0  0  0  0  0  0  0  0  0  0
    3.5724   -2.0625    0.0000 C   0  0  0  0  0  0  0  0  0  0  0  0
    4.2868   -2.4750    0.0000 C   0  0  0  0  0  0  0  0  0  0  0  0
    4.2868   -3.3000    0.0000 C   0  0  0  0  0  0  0  0  0  0  0  0
    5.0013   -3.7125    0.0000 C   0  0  0  0  0  0  0  0  0  0  0  0
    5.7158   -3.3000    0.0000 O   0  0  0  0  0  0  0  0  0  0  0  0
    5.0013   -4.5375    0.0000 N   0  0  0  0  0  0  0  0  0  0  0  0
    5.7158   -4.9500    0.0000 O   0  0  0  0  0  0  0  0  0  0  0  0
    2.8579   -2.4750    0.0000 C   0  0  0  0  0  0  0  0  0  0  0  0
   -1.5395   -4.5375    0.0000 H   0  0  0  0  0  0  0  0  0  0  0  0
   -0.7145   -5.3625    0.0000 H   0  0  0  0  0  0  0  0  0  0  0  0
    0.1105   -4.5375    0.0000 H   0  0  0  0  0  0  0  0  0  0  0  0
   -2.1434   -4.5375    0.0000 H   0  0  0  0  0  0  0  0  0  0  0  0
   -3.5724   -3.7125    0.0000 H   0  0  0  0  0  0  0  0  0  0  0  0
   -2.1434   -1.2375    0.0000 H   0  0  0  0  0  0  0  0  0  0  0  0
   -0.0000   -3.3000    0.0000 H   0  0  0  0  0  0  0  0  0  0  0  0
    1.0847   -1.3253    0.0000 H   0  0  0  0  0  0  0  0  0  0  0  0
    0.3442   -1.3253    0.0000 H   0  0  0  0  0  0  0  0  0  0  0  0
    1.0587   -3.2122    0.0000 H   0  0  0  0  0  0  0  0  0  0  0  0
    1.7992   -3.2122    0.0000 H   0  0  0  0  0  0  0  0  0  0  0  0
    1.4289   -0.8250    0.0000 H   0  0  0  0  0  0  0  0  0  0  0  0
    2.8579   -0.0000    0.0000 H   0  0  0  0  0  0  0  0  0  0  0  0
    4.2868   -0.8250    0.0000 H   0  0  0  0  0  0  0  0  0  0  0  0
    5.0013   -2.0625    0.0000 H   0  0  0  0  0  0  0  0  0  0  0  0
    3.5724   -3.7125    0.0000 H   0  0  0  0  0  0  0  0  0  0  0  0
    4.2868   -4.9500    0.0000 H   0  0  0  0  0  0  0  0  0  0  0  0
    5.7158   -5.7750    0.0000 H   0  0  0  0  0  0  0  0  0  0  0  0
    2.8579   -3.3000    0.0000 H   0  0  0  0  0  0  0  0  0  0  0  0
  1  2  1  0  0  0  0
  2  3  1  0  0  0  0
  3  4  4  0  0  0  0
  4  5  4  0  0  0  0
  5  6  4  0  0  0  0
  6  7  1  0  0  0  0
  6  8  4  0  0  0  0
  8  9  4  0  0  0  0
  3  9  4  0  0  0  0
  9 10  1  0  0  0  0
 10 11  2  0  0  0  0
 10 12  1  0  0  0  0
 12 13  1  0  0  0  0
 13 14  1  0  0  0  0
 14 15  1  0  0  0  0
 15 16  4  0  0  0  0
 16 17  4  0  0  0  0
 17 18  4  0  0  0  0
 18 19  4  0  0  0  0
 20 19  1  4  0  0  0
 20 21  2  0  0  0  0
 21 22  1  0  0  0  0
 22 23  2  0  0  0  0
 22 24  1  0  0  0  0
 24 25  1  0  0  0  0
 19 26  4  0  0  0  0
 15 26  4  0  0  0  0
  1 27  1  0  0  0  0
  1 28  1  0  0  0  0
  1 29  1  0  0  0  0
  4 30  1  0  0  0  0
  5 31  1  0  0  0  0
  8 32  1  0  0  0  0
 12 33  1  0  0  0  0
 13 34  1  0  0  0  0
 13 35  1  0  0  0  0
 14 36  1  0  0  0  0
 14 37  1  0  0  0  0
 16 38  1  0  0  0  0
 17 39  1  0  0  0  0
 18 40  1  0  0  0  0
 20 41  1  0  0  0  0
 21 42  1  0  0  0  0
 24 43  1  0  0  0  0
 25 44  1  0  0  0  0
 26 45  1  0  0  0  0
M  END
>  <Molecule ChEMBL ID>
CHEMBL4087230

>  <Compound Key>
12

>  <Active>
0

>  <StandardizerResult>
Dearomatize (ID: Dearomatize)
Clear Stereo (ID: ClearStereo)
Wedge Clean (ID: WedgeClean)
Mesomerize (ID: Mesomerize)
Tautomerize (ID: Tautomerize)
Aromatize (ID: Aromatize)
Add Explicit Hydrogens (ID: AddExplicitH)
Neutralize (ID: Neutralize)
Clean 2D (ID: Clean2D)


$$$$

  Mrv1551102232211292D          

 50 52  0  0  0  0            999 V2000
    2.8661   -4.9215    0.0000 C   0  0  0  0  0  0  0  0  0  0  0  0
    2.1517   -4.5090    0.0000 C   0  0  0  0  0  0  0  0  0  0  0  0
    1.4372   -4.9215    0.0000 N   0  0  0  0  0  0  0  0  0  0  0  0
    0.7227   -4.5090    0.0000 C   0  0  0  0  0  0  0  0  0  0  0  0
    0.7227   -3.6840    0.0000 C   0  0  0  0  0  0  0  0  0  0  0  0
    1.4372   -3.2715    0.0000 C   0  0  0  0  0  0  0  0  0  0  0  0
    1.4372   -2.4465    0.0000 N   0  0  0  0  0  0  0  0  0  0  0  0
    0.7227   -2.0340    0.0000 C   0  0  0  0  0  0  0  0  0  0  0  0
    2.1517   -2.0340    0.0000 C   0  0  0  0  0  0  0  0  0  0  0  0
    2.1517   -1.2090    0.0000 C   0  0  0  0  0  0  0  0  0  0  0  0
    2.8661   -0.7965    0.0000 C   0  0  0  0  0  0  0  0  0  0  0  0
    3.5806   -1.2090    0.0000 C   0  0  0  0  0  0  0  0  0  0  0  0
    4.2951   -0.7965    0.0000 O   0  0  0  0  0  0  0  0  0  0  0  0
    5.0095   -1.2090    0.0000 C   0  0  0  0  0  0  0  0  0  0  0  0
    5.7240   -0.7965    0.0000 C   0  0  0  0  0  0  0  0  0  0  0  0
    6.4385   -1.2090    0.0000 C   0  0  0  0  0  0  0  0  0  0  0  0
    7.1530   -0.7965    0.0000 C   0  0  0  0  0  0  0  0  0  0  0  0
    7.1530    0.0285    0.0000 O   0  0  0  0  0  0  0  0  0  0  0  0
    7.8674   -1.2090    0.0000 N   0  0  0  0  0  0  0  0  0  0  0  0
    8.5819   -0.7965    0.0000 O   0  0  0  0  0  0  0  0  0  0  0  0
    3.5806   -2.0340    0.0000 C   0  0  0  0  0  0  0  0  0  0  0  0
    2.8661   -2.4465    0.0000 C   0  0  0  0  0  0  0  0  0  0  0  0
    2.1517   -3.6840    0.0000 N   0  0  0  0  0  0  0  0  0  0  0  0
   -0.0619   -3.4291    0.0000 C   0  0  0  0  0  0  0  0  0  0  0  0
   -0.5468   -4.0965    0.0000 C   0  0  0  0  0  0  0  0  0  0  0  0
   -0.0619   -4.7640    0.0000 C   0  0  0  0  0  0  0  0  0  0  0  0
    2.4536   -5.6360    0.0000 H   0  0  0  0  0  0  0  0  0  0  0  0
    3.5806   -5.3340    0.0000 H   0  0  0  0  0  0  0  0  0  0  0  0
    3.2786   -4.2071    0.0000 H   0  0  0  0  0  0  0  0  0  0  0  0
    1.1352   -1.3196    0.0000 H   0  0  0  0  0  0  0  0  0  0  0  0
    0.0082   -1.6215    0.0000 H   0  0  0  0  0  0  0  0  0  0  0  0
    0.3102   -2.7485    0.0000 H   0  0  0  0  0  0  0  0  0  0  0  0
    1.4372   -0.7965    0.0000 H   0  0  0  0  0  0  0  0  0  0  0  0
    2.8661    0.0285    0.0000 H   0  0  0  0  0  0  0  0  0  0  0  0
    4.6393   -1.9463    0.0000 H   0  0  0  0  0  0  0  0  0  0  0  0
    5.3798   -1.9463    0.0000 H   0  0  0  0  0  0  0  0  0  0  0  0
    6.0943   -0.0593    0.0000 H   0  0  0  0  0  0  0  0  0  0  0  0
    5.3538   -0.0593    0.0000 H   0  0  0  0  0  0  0  0  0  0  0  0
    6.0682   -1.9463    0.0000 H   0  0  0  0  0  0  0  0  0  0  0  0
    6.8087   -1.9463    0.0000 H   0  0  0  0  0  0  0  0  0  0  0  0
    7.8674   -2.0340    0.0000 H   0  0  0  0  0  0  0  0  0  0  0  0
    9.2964   -1.2090    0.0000 H   0  0  0  0  0  0  0  0  0  0  0  0
    4.2951   -2.4465    0.0000 H   0  0  0  0  0  0  0  0  0  0  0  0
    2.8661   -3.2715    0.0000 H   0  0  0  0  0  0  0  0  0  0  0  0
   -0.4605   -2.7067    0.0000 H   0  0  0  0  0  0  0  0  0  0  0  0
   -0.8853   -3.3779    0.0000 H   0  0  0  0  0  0  0  0  0  0  0  0
   -1.3607   -4.2315    0.0000 H   0  0  0  0  0  0  0  0  0  0  0  0
   -1.0569   -4.7449    0.0000 H   0  0  0  0  0  0  0  0  0  0  0  0
   -0.6554   -5.3371    0.0000 H   0  0  0  0  0  0  0  0  0  0  0  0
    0.0814   -5.5764    0.0000 H   0  0  0  0  0  0  0  0  0  0  0  0
  1  2  1  0  0  0  0
  2  3  4  0  0  0  0
  3  4  4  0  0  0  0
  4  5  4  0  0  0  0
  5  6  4  0  0  0  0
  6  7  1  0  0  0  0
  7  8  1  0  0  0  0
  7  9  1  0  0  0  0
  9 10  4  0  0  0  0
 10 11  4  0  0  0  0
 11 12  4  0  0  0  0
 12 13  1  0  0  0  0
 13 14  1  0  0  0  0
 14 15  1  0  0  0  0
 15 16  1  0  0  0  0
 16 17  1  0  0  0  0
 17 18  2  0  0  0  0
 17 19  1  0  0  0  0
 19 20  1  0  0  0  0
 12 21  4  0  0  0  0
 21 22  4  0  0  0  0
  9 22  4  0  0  0  0
  6 23  4  0  0  0  0
  2 23  4  0  0  0  0
  5 24  1  0  0  0  0
 24 25  1  0  0  0  0
 25 26  1  0  0  0  0
  4 26  1  0  0  0  0
  1 27  1  0  0  0  0
  1 28  1  0  0  0  0
  1 29  1  0  0  0  0
  8 30  1  0  0  0  0
  8 31  1  0  0  0  0
  8 32  1  0  0  0  0
 10 33  1  0  0  0  0
 11 34  1  0  0  0  0
 14 35  1  0  0  0  0
 14 36  1  0  0  0  0
 15 37  1  0  0  0  0
 15 38  1  0  0  0  0
 16 39  1  0  0  0  0
 16 40  1  0  0  0  0
 19 41  1  0  0  0  0
 20 42  1  0  0  0  0
 21 43  1  0  0  0  0
 22 44  1  0  0  0  0
 24 45  1  0  0  0  0
 24 46  1  0  0  0  0
 25 47  1  0  0  0  0
 25 48  1  0  0  0  0
 26 49  1  0  0  0  0
 26 50  1  0  0  0  0
M  END
>  <Molecule ChEMBL ID>
CHEMBL3775269

>  <Compound Key>
16b

>  <Active>
0

>  <StandardizerResult>
Dearomatize (ID: Dearomatize)
Clear Stereo (ID: ClearStereo)
Wedge Clean (ID: WedgeClean)
Mesomerize (ID: Mesomerize)
Tautomerize (ID: Tautomerize)
Aromatize (ID: Aromatize)
Add Explicit Hydrogens (ID: AddExplicitH)
Neutralize (ID: Neutralize)
Clean 2D (ID: Clean2D)


$$$$

  Mrv1551102232211292D          

 48 51  0  0  0  0            999 V2000
    3.3523    4.4104    0.0000 C   0  0  0  0  0  0  0  0  0  0  0  0
    3.3523    3.5854    0.0000 O   0  0  0  0  0  0  0  0  0  0  0  0
    4.0668    3.1729    0.0000 C   0  0  0  0  0  0  0  0  0  0  0  0
    4.7812    3.5854    0.0000 C   0  0  0  0  0  0  0  0  0  0  0  0
    5.4957    3.1729    0.0000 C   0  0  0  0  0  0  0  0  0  0  0  0
    5.4957    2.3479    0.0000 C   0  0  0  0  0  0  0  0  0  0  0  0
    4.7812    1.9354    0.0000 C   0  0  0  0  0  0  0  0  0  0  0  0
    4.0668    2.3479    0.0000 C   0  0  0  0  0  0  0  0  0  0  0  0
    3.3523    1.9354    0.0000 C   0  0  0  0  0  0  0  0  0  0  0  0
    3.3523    1.1104    0.0000 C   0  0  0  0  0  0  0  0  0  0  0  0
    2.6378    0.6979    0.0000 C   0  0  0  0  0  0  0  0  0  0  0  0
    1.9233    1.1104    0.0000 C   0  0  0  0  0  0  0  0  0  0  0  0
    1.1387    0.8555    0.0000 C   0  0  0  0  0  0  0  0  0  0  0  0
    0.8838    0.0709    0.0000 N   0  0  0  0  0  0  0  0  0  0  0  0
    1.4358   -0.5422    0.0000 C   0  0  0  0  0  0  0  0  0  0  0  0
    2.2428   -0.3707    0.0000 O   0  0  0  0  0  0  0  0  0  0  0  0
    1.1809   -1.3269    0.0000 C   0  0  0  0  0  0  0  0  0  0  0  0
    1.7329   -1.9399    0.0000 C   0  0  0  0  0  0  0  0  0  0  0  0
    1.4780   -2.7246    0.0000 C   0  0  0  0  0  0  0  0  0  0  0  0
    0.6710   -2.8961    0.0000 C   0  0  0  0  0  0  0  0  0  0  0  0
    0.4161   -3.6807    0.0000 C   0  0  0  0  0  0  0  0  0  0  0  0
    0.9681   -4.2938    0.0000 O   0  0  0  0  0  0  0  0  0  0  0  0
   -0.3909   -3.8522    0.0000 N   0  0  0  0  0  0  0  0  0  0  0  0
   -0.6459   -4.6369    0.0000 O   0  0  0  0  0  0  0  0  0  0  0  0
    0.1190   -2.2830    0.0000 C   0  0  0  0  0  0  0  0  0  0  0  0
    0.3739   -1.4984    0.0000 C   0  0  0  0  0  0  0  0  0  0  0  0
    0.6538    1.5229    0.0000 N   0  0  0  0  0  0  0  0  0  0  0  0
    1.1387    2.1904    0.0000 N   0  0  0  0  0  0  0  0  0  0  0  0
    1.9233    1.9354    0.0000 C   0  0  0  0  0  0  0  0  0  0  0  0
    2.6378    2.3479    0.0000 C   0  0  0  0  0  0  0  0  0  0  0  0
    4.1773    4.4104    0.0000 H   0  0  0  0  0  0  0  0  0  0  0  0
    3.3523    5.2354    0.0000 H   0  0  0  0  0  0  0  0  0  0  0  0
    2.5273    4.4104    0.0000 H   0  0  0  0  0  0  0  0  0  0  0  0
    4.7812    4.4104    0.0000 H   0  0  0  0  0  0  0  0  0  0  0  0
    6.2102    3.5854    0.0000 H   0  0  0  0  0  0  0  0  0  0  0  0
    6.2102    1.9354    0.0000 H   0  0  0  0  0  0  0  0  0  0  0  0
    4.7812    1.1104    0.0000 H   0  0  0  0  0  0  0  0  0  0  0  0
    4.0668    0.6979    0.0000 H   0  0  0  0  0  0  0  0  0  0  0  0
    2.6378   -0.1271    0.0000 H   0  0  0  0  0  0  0  0  0  0  0  0
    0.0768   -0.1007    0.0000 H   0  0  0  0  0  0  0  0  0  0  0  0
    2.5399   -1.7684    0.0000 H   0  0  0  0  0  0  0  0  0  0  0  0
    2.0300   -3.3377    0.0000 H   0  0  0  0  0  0  0  0  0  0  0  0
   -0.9429   -3.2392    0.0000 H   0  0  0  0  0  0  0  0  0  0  0  0
   -1.4528   -4.8084    0.0000 H   0  0  0  0  0  0  0  0  0  0  0  0
   -0.6880   -2.4545    0.0000 H   0  0  0  0  0  0  0  0  0  0  0  0
   -0.1781   -0.8853    0.0000 H   0  0  0  0  0  0  0  0  0  0  0  0
   -0.1712    1.5229    0.0000 H   0  0  0  0  0  0  0  0  0  0  0  0
    2.6378    3.1729    0.0000 H   0  0  0  0  0  0  0  0  0  0  0  0
  1  2  1  0  0  0  0
  2  3  1  0  0  0  0
  3  4  4  0  0  0  0
  4  5  4  0  0  0  0
  5  6  4  0  0  0  0
  6  7  4  0  0  0  0
  7  8  4  0  0  0  0
  3  8  4  0  0  0  0
  8  9  1  0  0  0  0
  9 10  4  0  0  0  0
 10 11  4  0  0  0  0
 11 12  4  0  0  0  0
 12 13  4  0  0  0  0
 13 14  1  0  0  0  0
 14 15  1  0  0  0  0
 15 16  2  0  0  0  0
 15 17  1  0  0  0  0
 17 18  4  0  0  0  0
 18 19  4  0  0  0  0
 19 20  4  0  0  0  0
 20 21  1  0  0  0  0
 21 22  2  0  0  0  0
 21 23  1  0  0  0  0
 23 24  1  0  0  0  0
 20 25  4  0  0  0  0
 25 26  4  0  0  0  0
 17 26  4  0  0  0  0
 13 27  4  0  0  0  0
 27 28  4  0  0  0  0
 28 29  4  0  0  0  0
 12 29  4  0  0  0  0
 29 30  4  0  0  0  0
  9 30  4  0  0  0  0
  1 31  1  0  0  0  0
  1 32  1  0  0  0  0
  1 33  1  0  0  0  0
  4 34  1  0  0  0  0
  5 35  1  0  0  0  0
  6 36  1  0  0  0  0
  7 37  1  0  0  0  0
 10 38  1  0  0  0  0
 11 39  1  0  0  0  0
 14 40  1  0  0  0  0
 18 41  1  0  0  0  0
 19 42  1  0  0  0  0
 23 43  1  0  0  0  0
 24 44  1  0  0  0  0
 25 45  1  0  0  0  0
 26 46  1  0  0  0  0
 27 47  1  0  0  0  0
 30 48  1  0  0  0  0
M  END
>  <Molecule ChEMBL ID>
CHEMBL4204972

>  <Compound Key>
7v

>  <Active>
0

>  <StandardizerResult>
Dearomatize (ID: Dearomatize)
Clear Stereo (ID: ClearStereo)
Wedge Clean (ID: WedgeClean)
Mesomerize (ID: Mesomerize)
Tautomerize (ID: Tautomerize)
Aromatize (ID: Aromatize)
Add Explicit Hydrogens (ID: AddExplicitH)
Neutralize (ID: Neutralize)
Clean 2D (ID: Clean2D)


$$$$

  Mrv1551102232211292D          

 38 40  0  0  0  0            999 V2000
    4.7742    4.4118    0.0000 O   0  0  0  0  0  0  0  0  0  0  0  0
    4.7742    3.5868    0.0000 C   0  0  0  0  0  0  0  0  0  0  0  0
    4.0597    3.1743    0.0000 C   0  0  0  0  0  0  0  0  0  0  0  0
    4.0597    2.3493    0.0000 C   0  0  0  0  0  0  0  0  0  0  0  0
    3.3453    1.9368    0.0000 C   0  0  0  0  0  0  0  0  0  0  0  0
    3.3453    1.1118    0.0000 C   0  0  0  0  0  0  0  0  0  0  0  0
    2.6308    0.6993    0.0000 C   0  0  0  0  0  0  0  0  0  0  0  0
    1.9163    1.1118    0.0000 C   0  0  0  0  0  0  0  0  0  0  0  0
    1.9163    1.9368    0.0000 C   0  0  0  0  0  0  0  0  0  0  0  0
    1.1317    2.1918    0.0000 C   0  0  0  0  0  0  0  0  0  0  0  0
    0.6468    1.5243    0.0000 C   0  0  0  0  0  0  0  0  0  0  0  0
    1.1317    0.8569    0.0000 N   0  0  0  0  0  0  0  0  0  0  0  0
    0.8768    0.0723    0.0000 C   0  0  0  0  0  0  0  0  0  0  0  0
    0.0698   -0.0993    0.0000 C   0  0  0  0  0  0  0  0  0  0  0  0
   -0.1851   -0.8839    0.0000 C   0  0  0  0  0  0  0  0  0  0  0  0
   -0.9921   -1.0554    0.0000 C   0  0  0  0  0  0  0  0  0  0  0  0
   -1.5441   -0.4423    0.0000 C   0  0  0  0  0  0  0  0  0  0  0  0
   -1.2892    0.3423    0.0000 C   0  0  0  0  0  0  0  0  0  0  0  0
   -0.4822    0.5138    0.0000 C   0  0  0  0  0  0  0  0  0  0  0  0
    2.6308    2.3493    0.0000 C   0  0  0  0  0  0  0  0  0  0  0  0
    5.4887    3.1743    0.0000 N   0  0  0  0  0  0  0  0  0  0  0  0
    6.2032    3.5868    0.0000 O   0  0  0  0  0  0  0  0  0  0  0  0
    3.3453    3.5868    0.0000 H   0  0  0  0  0  0  0  0  0  0  0  0
    4.7742    1.9368    0.0000 H   0  0  0  0  0  0  0  0  0  0  0  0
    4.0597    0.6993    0.0000 H   0  0  0  0  0  0  0  0  0  0  0  0
    2.6308   -0.1257    0.0000 H   0  0  0  0  0  0  0  0  0  0  0  0
    0.8768    2.9764    0.0000 H   0  0  0  0  0  0  0  0  0  0  0  0
   -0.1782    1.5243    0.0000 H   0  0  0  0  0  0  0  0  0  0  0  0
    1.0949   -0.7234    0.0000 H   0  0  0  0  0  0  0  0  0  0  0  0
    1.6452   -0.2279    0.0000 H   0  0  0  0  0  0  0  0  0  0  0  0
    0.3669   -1.4970    0.0000 H   0  0  0  0  0  0  0  0  0  0  0  0
   -1.2471   -1.8400    0.0000 H   0  0  0  0  0  0  0  0  0  0  0  0
   -2.3511   -0.6138    0.0000 H   0  0  0  0  0  0  0  0  0  0  0  0
   -1.8412    0.9554    0.0000 H   0  0  0  0  0  0  0  0  0  0  0  0
   -0.2273    1.2985    0.0000 H   0  0  0  0  0  0  0  0  0  0  0  0
    2.6308    3.1743    0.0000 H   0  0  0  0  0  0  0  0  0  0  0  0
    5.4887    2.3493    0.0000 H   0  0  0  0  0  0  0  0  0  0  0  0
    6.9176    3.1743    0.0000 H   0  0  0  0  0  0  0  0  0  0  0  0
  1  2  2  0  0  0  0
  3  2  1  4  0  0  0
  3  4  2  0  0  0  0
  4  5  1  0  0  0  0
  5  6  4  0  0  0  0
  6  7  4  0  0  0  0
  7  8  4  0  0  0  0
  8  9  4  0  0  0  0
  9 10  4  0  0  0  0
 10 11  4  0  0  0  0
 11 12  4  0  0  0  0
  8 12  4  0  0  0  0
 12 13  1  0  0  0  0
 13 14  1  0  0  0  0
 14 15  4  0  0  0  0
 15 16  4  0  0  0  0
 16 17  4  0  0  0  0
 17 18  4  0  0  0  0
 18 19  4  0  0  0  0
 14 19  4  0  0  0  0
  9 20  4  0  0  0  0
  5 20  4  0  0  0  0
  2 21  1  0  0  0  0
 21 22  1  0  0  0  0
  3 23  1  0  0  0  0
  4 24  1  0  0  0  0
  6 25  1  0  0  0  0
  7 26  1  0  0  0  0
 10 27  1  0  0  0  0
 11 28  1  0  0  0  0
 13 29  1  0  0  0  0
 13 30  1  0  0  0  0
 15 31  1  0  0  0  0
 16 32  1  0  0  0  0
 17 33  1  0  0  0  0
 18 34  1  0  0  0  0
 19 35  1  0  0  0  0
 20 36  1  0  0  0  0
 21 37  1  0  0  0  0
 22 38  1  0  0  0  0
M  END
>  <Molecule ChEMBL ID>
CHEMBL2048755

>  <Compound Key>
17

>  <Active>
0

>  <StandardizerResult>
Dearomatize (ID: Dearomatize)
Clear Stereo (ID: ClearStereo)
Wedge Clean (ID: WedgeClean)
Mesomerize (ID: Mesomerize)
Tautomerize (ID: Tautomerize)
Aromatize (ID: Aromatize)
Add Explicit Hydrogens (ID: AddExplicitH)
Neutralize (ID: Neutralize)
Clean 2D (ID: Clean2D)


$$$$

  Mrv1551102232211292D          

 47 48  0  0  0  0            999 V2000
   -2.8579   -3.3000    0.0000 C   0  0  0  0  0  0  0  0  0  0  0  0
   -2.8579   -2.4750    0.0000 O   0  0  0  0  0  0  0  0  0  0  0  0
   -3.5724   -2.0625    0.0000 C   0  0  0  0  0  0  0  0  0  0  0  0
   -4.2868   -2.4750    0.0000 C   0  0  0  0  0  0  0  0  0  0  0  0
   -5.0013   -2.0625    0.0000 C   0  0  0  0  0  0  0  0  0  0  0  0
   -5.0013   -1.2375    0.0000 C   0  0  0  0  0  0  0  0  0  0  0  0
   -5.7158   -0.8250    0.0000 Cl  0  0  0  0  0  0  0  0  0  0  0  0
   -4.2868   -0.8250    0.0000 C   0  0  0  0  0  0  0  0  0  0  0  0
   -3.5724   -1.2375    0.0000 C   0  0  0  0  0  0  0  0  0  0  0  0
   -2.8579   -0.8250    0.0000 C   0  0  0  0  0  0  0  0  0  0  0  0
   -2.1434   -1.2375    0.0000 O   0  0  0  0  0  0  0  0  0  0  0  0
   -2.8579   -0.0000    0.0000 N   0  0  0  0  0  0  0  0  0  0  0  0
   -2.1434    0.4125    0.0000 C   0  0  0  0  0  0  0  0  0  0  0  0
   -2.1434    1.2375    0.0000 C   0  0  0  0  0  0  0  0  0  0  0  0
   -1.4289    1.6500    0.0000 C   0  0  0  0  0  0  0  0  0  0  0  0
   -1.4289    2.4750    0.0000 C   0  0  0  0  0  0  0  0  0  0  0  0
   -0.7145    2.8875    0.0000 C   0  0  0  0  0  0  0  0  0  0  0  0
   -0.0000    2.4750    0.0000 C   0  0  0  0  0  0  0  0  0  0  0  0
    0.7145    2.8875    0.0000 C   0  0  0  0  0  0  0  0  0  0  0  0
    1.4289    2.4750    0.0000 C   0  0  0  0  0  0  0  0  0  0  0  0
    2.1434    2.8875    0.0000 C   0  0  0  0  0  0  0  0  0  0  0  0
    2.1434    3.7125    0.0000 O   0  0  0  0  0  0  0  0  0  0  0  0
    2.8579    2.4750    0.0000 N   0  0  0  0  0  0  0  0  0  0  0  0
    3.5724    2.8875    0.0000 O   0  0  0  0  0  0  0  0  0  0  0  0
   -0.0000    1.6500    0.0000 C   0  0  0  0  0  0  0  0  0  0  0  0
   -0.7145    1.2375    0.0000 C   0  0  0  0  0  0  0  0  0  0  0  0
   -3.6829   -3.3000    0.0000 H   0  0  0  0  0  0  0  0  0  0  0  0
   -2.8579   -4.1250    0.0000 H   0  0  0  0  0  0  0  0  0  0  0  0
   -2.0329   -3.3000    0.0000 H   0  0  0  0  0  0  0  0  0  0  0  0
   -4.2868   -3.3000    0.0000 H   0  0  0  0  0  0  0  0  0  0  0  0
   -5.7158   -2.4750    0.0000 H   0  0  0  0  0  0  0  0  0  0  0  0
   -4.2868   -0.0000    0.0000 H   0  0  0  0  0  0  0  0  0  0  0  0
   -3.5724    0.4125    0.0000 H   0  0  0  0  0  0  0  0  0  0  0  0
   -1.6901   -0.2768    0.0000 H   0  0  0  0  0  0  0  0  0  0  0  0
   -1.3198    0.3645    0.0000 H   0  0  0  0  0  0  0  0  0  0  0  0
   -2.5968    1.9268    0.0000 H   0  0  0  0  0  0  0  0  0  0  0  0
   -2.9670    1.2855    0.0000 H   0  0  0  0  0  0  0  0  0  0  0  0
   -2.1434    2.8875    0.0000 H   0  0  0  0  0  0  0  0  0  0  0  0
   -0.7145    3.7125    0.0000 H   0  0  0  0  0  0  0  0  0  0  0  0
    1.0847    3.6247    0.0000 H   0  0  0  0  0  0  0  0  0  0  0  0
    0.3442    3.6247    0.0000 H   0  0  0  0  0  0  0  0  0  0  0  0
    1.0587    1.7378    0.0000 H   0  0  0  0  0  0  0  0  0  0  0  0
    1.7992    1.7378    0.0000 H   0  0  0  0  0  0  0  0  0  0  0  0
    2.8579    1.6500    0.0000 H   0  0  0  0  0  0  0  0  0  0  0  0
    4.2868    2.4750    0.0000 H   0  0  0  0  0  0  0  0  0  0  0  0
    0.7145    1.2375    0.0000 H   0  0  0  0  0  0  0  0  0  0  0  0
   -0.7145    0.4125    0.0000 H   0  0  0  0  0  0  0  0  0  0  0  0
  1  2  1  0  0  0  0
  2  3  1  0  0  0  0
  3  4  4  0  0  0  0
  4  5  4  0  0  0  0
  5  6  4  0  0  0  0
  6  7  1  0  0  0  0
  6  8  4  0  0  0  0
  8  9  4  0  0  0  0
  3  9  4  0  0  0  0
  9 10  1  0  0  0  0
 10 11  2  0  0  0  0
 10 12  1  0  0  0  0
 12 13  1  0  0  0  0
 13 14  1  0  0  0  0
 14 15  1  0  0  0  0
 15 16  4  0  0  0  0
 16 17  4  0  0  0  0
 17 18  4  0  0  0  0
 18 19  1  0  0  0  0
 19 20  1  0  0  0  0
 20 21  1  0  0  0  0
 21 22  2  0  0  0  0
 21 23  1  0  0  0  0
 23 24  1  0  0  0  0
 18 25  4  0  0  0  0
 25 26  4  0  0  0  0
 15 26  4  0  0  0  0
  1 27  1  0  0  0  0
  1 28  1  0  0  0  0
  1 29  1  0  0  0  0
  4 30  1  0  0  0  0
  5 31  1  0  0  0  0
  8 32  1  0  0  0  0
 12 33  1  0  0  0  0
 13 34  1  0  0  0  0
 13 35  1  0  0  0  0
 14 36  1  0  0  0  0
 14 37  1  0  0  0  0
 16 38  1  0  0  0  0
 17 39  1  0  0  0  0
 19 40  1  0  0  0  0
 19 41  1  0  0  0  0
 20 42  1  0  0  0  0
 20 43  1  0  0  0  0
 23 44  1  0  0  0  0
 24 45  1  0  0  0  0
 25 46  1  0  0  0  0
 26 47  1  0  0  0  0
M  END
>  <Molecule ChEMBL ID>
CHEMBL4089964

>  <Compound Key>
5

>  <Active>
0

>  <StandardizerResult>
Dearomatize (ID: Dearomatize)
Clear Stereo (ID: ClearStereo)
Wedge Clean (ID: WedgeClean)
Mesomerize (ID: Mesomerize)
Tautomerize (ID: Tautomerize)
Aromatize (ID: Aromatize)
Add Explicit Hydrogens (ID: AddExplicitH)
Neutralize (ID: Neutralize)
Clean 2D (ID: Clean2D)


$$$$

  Mrv1551102232211292D          

 46 48  0  0  0  0            999 V2000
    0.4136   -5.8628    0.0000 C   0  0  0  0  0  0  0  0  0  0  0  0
   -0.1384   -5.2497    0.0000 O   0  0  0  0  0  0  0  0  0  0  0  0
    0.1165   -4.4650    0.0000 C   0  0  0  0  0  0  0  0  0  0  0  0
   -0.4355   -3.8519    0.0000 C   0  0  0  0  0  0  0  0  0  0  0  0
   -0.1806   -3.0673    0.0000 C   0  0  0  0  0  0  0  0  0  0  0  0
    0.6264   -2.8958    0.0000 C   0  0  0  0  0  0  0  0  0  0  0  0
    0.8814   -2.1112    0.0000 S   0  0  0  0  0  0  0  0  0  0  0  0
    1.6660   -2.3661    0.0000 O   0  0  0  0  0  0  0  0  0  0  0  0
    0.0967   -1.8562    0.0000 O   0  0  0  0  0  0  0  0  0  0  0  0
    1.1363   -1.3266    0.0000 N   0  0  0  0  0  0  0  0  0  0  0  0
    0.6514   -0.6591    0.0000 C   0  0  0  0  0  0  0  0  0  0  0  0
    1.1363    0.0083    0.0000 C   0  0  0  0  0  0  0  0  0  0  0  0
    1.9209   -0.2466    0.0000 C   0  0  0  0  0  0  0  0  0  0  0  0
    2.6354    0.1659    0.0000 C   0  0  0  0  0  0  0  0  0  0  0  0
    3.3499   -0.2466    0.0000 C   0  0  0  0  0  0  0  0  0  0  0  0
    4.0643    0.1659    0.0000 C   0  0  0  0  0  0  0  0  0  0  0  0
    4.7788   -0.2466    0.0000 C   0  0  0  0  0  0  0  0  0  0  0  0
    5.4933    0.1659    0.0000 C   0  0  0  0  0  0  0  0  0  0  0  0
    5.4933    0.9909    0.0000 O   0  0  0  0  0  0  0  0  0  0  0  0
    6.2077   -0.2466    0.0000 N   0  0  0  0  0  0  0  0  0  0  0  0
    6.9222    0.1659    0.0000 O   0  0  0  0  0  0  0  0  0  0  0  0
    3.3499   -1.0716    0.0000 C   0  0  0  0  0  0  0  0  0  0  0  0
    2.6354   -1.4841    0.0000 C   0  0  0  0  0  0  0  0  0  0  0  0
    1.9209   -1.0716    0.0000 C   0  0  0  0  0  0  0  0  0  0  0  0
    1.1784   -3.5089    0.0000 C   0  0  0  0  0  0  0  0  0  0  0  0
    0.9235   -4.2935    0.0000 C   0  0  0  0  0  0  0  0  0  0  0  0
    1.4755   -4.9066    0.0000 O   0  0  0  0  0  0  0  0  0  0  0  0
    1.2206   -5.6912    0.0000 C   0  0  0  0  0  0  0  0  0  0  0  0
   -0.3933   -6.0343    0.0000 H   0  0  0  0  0  0  0  0  0  0  0  0
    0.1587   -6.6474    0.0000 H   0  0  0  0  0  0  0  0  0  0  0  0
    0.9657   -6.4759    0.0000 H   0  0  0  0  0  0  0  0  0  0  0  0
   -1.2425   -4.0235    0.0000 H   0  0  0  0  0  0  0  0  0  0  0  0
   -0.7326   -2.4542    0.0000 H   0  0  0  0  0  0  0  0  0  0  0  0
   -0.1736   -0.6591    0.0000 H   0  0  0  0  0  0  0  0  0  0  0  0
    0.8814    0.7929    0.0000 H   0  0  0  0  0  0  0  0  0  0  0  0
    2.6354    0.9909    0.0000 H   0  0  0  0  0  0  0  0  0  0  0  0
    4.0643    0.9909    0.0000 H   0  0  0  0  0  0  0  0  0  0  0  0
    4.7788   -1.0716    0.0000 H   0  0  0  0  0  0  0  0  0  0  0  0
    6.2077   -1.0716    0.0000 H   0  0  0  0  0  0  0  0  0  0  0  0
    7.6367   -0.2466    0.0000 H   0  0  0  0  0  0  0  0  0  0  0  0
    4.0643   -1.4841    0.0000 H   0  0  0  0  0  0  0  0  0  0  0  0
    2.6354   -2.3091    0.0000 H   0  0  0  0  0  0  0  0  0  0  0  0
    1.9854   -3.3374    0.0000 H   0  0  0  0  0  0  0  0  0  0  0  0
    1.8707   -6.1992    0.0000 H   0  0  0  0  0  0  0  0  0  0  0  0
    2.0451   -5.6624    0.0000 H   0  0  0  0  0  0  0  0  0  0  0  0
    0.6686   -5.0781    0.0000 H   0  0  0  0  0  0  0  0  0  0  0  0
  1  2  1  0  0  0  0
  2  3  1  0  0  0  0
  3  4  4  0  0  0  0
  4  5  4  0  0  0  0
  5  6  4  0  0  0  0
  6  7  1  0  0  0  0
  7  8  2  0  0  0  0
  7  9  2  0  0  0  0
  7 10  1  0  0  0  0
 10 11  4  0  0  0  0
 11 12  4  0  0  0  0
 12 13  4  0  0  0  0
 13 14  4  0  0  0  0
 14 15  4  0  0  0  0
 16 15  1  4  0  0  0
 16 17  2  0  0  0  0
 17 18  1  0  0  0  0
 18 19  2  0  0  0  0
 18 20  1  0  0  0  0
 20 21  1  0  0  0  0
 15 22  4  0  0  0  0
 22 23  4  0  0  0  0
 23 24  4  0  0  0  0
 13 24  4  0  0  0  0
 10 24  4  0  0  0  0
  6 25  4  0  0  0  0
 25 26  4  0  0  0  0
  3 26  4  0  0  0  0
 26 27  1  0  0  0  0
 27 28  1  0  0  0  0
  1 29  1  0  0  0  0
  1 30  1  0  0  0  0
  1 31  1  0  0  0  0
  4 32  1  0  0  0  0
  5 33  1  0  0  0  0
 11 34  1  0  0  0  0
 12 35  1  0  0  0  0
 14 36  1  0  0  0  0
 16 37  1  0  0  0  0
 17 38  1  0  0  0  0
 20 39  1  0  0  0  0
 21 40  1  0  0  0  0
 22 41  1  0  0  0  0
 23 42  1  0  0  0  0
 25 43  1  0  0  0  0
 28 44  1  0  0  0  0
 28 45  1  0  0  0  0
 28 46  1  0  0  0  0
M  END
>  <Molecule ChEMBL ID>
CHEMBL2048750

>  <Compound Key>
12

>  <Active>
0

>  <StandardizerResult>
Dearomatize (ID: Dearomatize)
Clear Stereo (ID: ClearStereo)
Wedge Clean (ID: WedgeClean)
Mesomerize (ID: Mesomerize)
Tautomerize (ID: Tautomerize)
Aromatize (ID: Aromatize)
Add Explicit Hydrogens (ID: AddExplicitH)
Neutralize (ID: Neutralize)
Clean 2D (ID: Clean2D)


$$$$

  Mrv1551102232211292D          

 49 51  0  0  0  0            999 V2000
    2.1699   -2.8573    0.0000 C   0  0  0  0  0  0  0  0  0  0  0  0
    2.8844   -3.2698    0.0000 N   0  0  0  0  0  0  0  0  0  0  0  0
    3.5988   -2.8573    0.0000 C   0  0  0  0  0  0  0  0  0  0  0  0
    3.5988   -2.0323    0.0000 C   0  0  0  0  0  0  0  0  0  0  0  0
    4.3133   -1.6198    0.0000 C   0  0  0  0  0  0  0  0  0  0  0  0
    5.0278   -2.0323    0.0000 C   0  0  0  0  0  0  0  0  0  0  0  0
    5.7423   -1.6198    0.0000 O   0  0  0  0  0  0  0  0  0  0  0  0
    6.4567   -2.0323    0.0000 C   0  0  0  0  0  0  0  0  0  0  0  0
    7.1712   -1.6198    0.0000 C   0  0  0  0  0  0  0  0  0  0  0  0
    7.8857   -2.0323    0.0000 C   0  0  0  0  0  0  0  0  0  0  0  0
    8.6001   -1.6198    0.0000 C   0  0  0  0  0  0  0  0  0  0  0  0
    9.3146   -2.0323    0.0000 C   0  0  0  0  0  0  0  0  0  0  0  0
    9.3146   -2.8573    0.0000 O   0  0  0  0  0  0  0  0  0  0  0  0
   10.0291   -1.6198    0.0000 N   0  0  0  0  0  0  0  0  0  0  0  0
   10.7436   -2.0323    0.0000 O   0  0  0  0  0  0  0  0  0  0  0  0
    5.0278   -2.8573    0.0000 C   0  0  0  0  0  0  0  0  0  0  0  0
    4.3133   -3.2698    0.0000 C   0  0  0  0  0  0  0  0  0  0  0  0
    2.8844   -4.0948    0.0000 C   0  0  0  0  0  0  0  0  0  0  0  0
    3.5988   -4.5073    0.0000 N   0  0  0  0  0  0  0  0  0  0  0  0
    3.5988   -5.3323    0.0000 C   0  0  0  0  0  0  0  0  0  0  0  0
    2.8844   -5.7448    0.0000 N   0  0  0  0  0  0  0  0  0  0  0  0
    2.1699   -5.3323    0.0000 C   0  0  0  0  0  0  0  0  0  0  0  0
    1.4554   -5.7448    0.0000 C   0  0  0  0  0  0  0  0  0  0  0  0
    0.7410   -5.3323    0.0000 C   0  0  0  0  0  0  0  0  0  0  0  0
    0.7410   -4.5073    0.0000 C   0  0  0  0  0  0  0  0  0  0  0  0
    1.4554   -4.0948    0.0000 C   0  0  0  0  0  0  0  0  0  0  0  0
    2.1699   -4.5073    0.0000 C   0  0  0  0  0  0  0  0  0  0  0  0
    2.5824   -2.1428    0.0000 H   0  0  0  0  0  0  0  0  0  0  0  0
    1.4554   -2.4448    0.0000 H   0  0  0  0  0  0  0  0  0  0  0  0
    1.7574   -3.5718    0.0000 H   0  0  0  0  0  0  0  0  0  0  0  0
    2.8844   -1.6198    0.0000 H   0  0  0  0  0  0  0  0  0  0  0  0
    4.3133   -0.7948    0.0000 H   0  0  0  0  0  0  0  0  0  0  0  0
    6.0865   -2.7696    0.0000 H   0  0  0  0  0  0  0  0  0  0  0  0
    6.8270   -2.7696    0.0000 H   0  0  0  0  0  0  0  0  0  0  0  0
    7.5415   -0.8826    0.0000 H   0  0  0  0  0  0  0  0  0  0  0  0
    6.8009   -0.8826    0.0000 H   0  0  0  0  0  0  0  0  0  0  0  0
    7.5154   -2.7696    0.0000 H   0  0  0  0  0  0  0  0  0  0  0  0
    8.2559   -2.7696    0.0000 H   0  0  0  0  0  0  0  0  0  0  0  0
    8.9704   -0.8826    0.0000 H   0  0  0  0  0  0  0  0  0  0  0  0
    8.2299   -0.8826    0.0000 H   0  0  0  0  0  0  0  0  0  0  0  0
   10.0291   -0.7948    0.0000 H   0  0  0  0  0  0  0  0  0  0  0  0
   10.7436   -2.8573    0.0000 H   0  0  0  0  0  0  0  0  0  0  0  0
    5.7423   -3.2698    0.0000 H   0  0  0  0  0  0  0  0  0  0  0  0
    4.3133   -4.0948    0.0000 H   0  0  0  0  0  0  0  0  0  0  0  0
    4.3133   -5.7448    0.0000 H   0  0  0  0  0  0  0  0  0  0  0  0
    1.4554   -6.5698    0.0000 H   0  0  0  0  0  0  0  0  0  0  0  0
    0.0265   -5.7448    0.0000 H   0  0  0  0  0  0  0  0  0  0  0  0
    0.0265   -4.0948    0.0000 H   0  0  0  0  0  0  0  0  0  0  0  0
    0.8721   -3.5115    0.0000 H   0  0  0  0  0  0  0  0  0  0  0  0
  1  2  1  0  0  0  0
  2  3  1  0  0  0  0
  3  4  4  0  0  0  0
  4  5  4  0  0  0  0
  5  6  4  0  0  0  0
  6  7  1  0  0  0  0
  7  8  1  0  0  0  0
  8  9  1  0  0  0  0
  9 10  1  0  0  0  0
 10 11  1  0  0  0  0
 11 12  1  0  0  0  0
 12 13  2  0  0  0  0
 12 14  1  0  0  0  0
 14 15  1  0  0  0  0
  6 16  4  0  0  0  0
 16 17  4  0  0  0  0
  3 17  4  0  0  0  0
  2 18  1  0  0  0  0
 18 19  4  0  0  0  0
 19 20  4  0  0  0  0
 20 21  4  0  0  0  0
 21 22  4  0  0  0  0
 22 23  4  0  0  0  0
 23 24  4  0  0  0  0
 24 25  4  0  0  0  0
 25 26  4  0  0  0  0
 26 27  4  0  0  0  0
 18 27  4  0  0  0  0
 22 27  4  0  0  0  0
  1 28  1  0  0  0  0
  1 29  1  0  0  0  0
  1 30  1  0  0  0  0
  4 31  1  0  0  0  0
  5 32  1  0  0  0  0
  8 33  1  0  0  0  0
  8 34  1  0  0  0  0
  9 35  1  0  0  0  0
  9 36  1  0  0  0  0
 10 37  1  0  0  0  0
 10 38  1  0  0  0  0
 11 39  1  0  0  0  0
 11 40  1  0  0  0  0
 14 41  1  0  0  0  0
 15 42  1  0  0  0  0
 16 43  1  0  0  0  0
 17 44  1  0  0  0  0
 20 45  1  0  0  0  0
 23 46  1  0  0  0  0
 24 47  1  0  0  0  0
 25 48  1  0  0  0  0
 26 49  1  0  0  0  0
M  END
>  <Molecule ChEMBL ID>
CHEMBL3774858

>  <Compound Key>
10c

>  <Active>
0

>  <StandardizerResult>
Dearomatize (ID: Dearomatize)
Clear Stereo (ID: ClearStereo)
Wedge Clean (ID: WedgeClean)
Mesomerize (ID: Mesomerize)
Tautomerize (ID: Tautomerize)
Aromatize (ID: Aromatize)
Add Explicit Hydrogens (ID: AddExplicitH)
Neutralize (ID: Neutralize)
Clean 2D (ID: Clean2D)


$$$$

  Mrv1551102232211292D          

 39 40  0  0  0  0            999 V2000
    2.5689   -1.8512    0.0000 O   0  0  0  0  0  0  0  0  0  0  0  0
    2.5689   -2.6762    0.0000 C   0  0  0  0  0  0  0  0  0  0  0  0
    1.8545   -3.0887    0.0000 C   0  0  0  0  0  0  0  0  0  0  0  0
    1.1400   -2.6762    0.0000 C   0  0  0  0  0  0  0  0  0  0  0  0
    0.4255   -3.0887    0.0000 C   0  0  0  0  0  0  0  0  0  0  0  0
   -0.2890   -2.6762    0.0000 C   0  0  0  0  0  0  0  0  0  0  0  0
   -1.0034   -3.0887    0.0000 O   0  0  0  0  0  0  0  0  0  0  0  0
   -1.7179   -2.6762    0.0000 C   0  0  0  0  0  0  0  0  0  0  0  0
   -2.4324   -3.0887    0.0000 C   0  0  0  0  0  0  0  0  0  0  0  0
   -2.5186   -3.9092    0.0000 C   0  0  0  0  0  0  0  0  0  0  0  0
   -3.3256   -4.0807    0.0000 C   0  0  0  0  0  0  0  0  0  0  0  0
   -3.6611   -4.8344    0.0000 C   0  0  0  0  0  0  0  0  0  0  0  0
   -3.1762   -5.5018    0.0000 C   0  0  0  0  0  0  0  0  0  0  0  0
   -3.5118   -6.2555    0.0000 C   0  0  0  0  0  0  0  0  0  0  0  0
   -4.3323   -6.3417    0.0000 C   0  0  0  0  0  0  0  0  0  0  0  0
   -4.8172   -5.6743    0.0000 C   0  0  0  0  0  0  0  0  0  0  0  0
   -4.4816   -4.9206    0.0000 C   0  0  0  0  0  0  0  0  0  0  0  0
   -3.7381   -3.3662    0.0000 O   0  0  0  0  0  0  0  0  0  0  0  0
   -3.1860   -2.7531    0.0000 N   0  0  0  0  0  0  0  0  0  0  0  0
    3.2834   -3.0887    0.0000 N   0  0  0  0  0  0  0  0  0  0  0  0
    3.9979   -2.6762    0.0000 O   0  0  0  0  0  0  0  0  0  0  0  0
    1.4842   -3.8259    0.0000 H   0  0  0  0  0  0  0  0  0  0  0  0
    2.2247   -3.8259    0.0000 H   0  0  0  0  0  0  0  0  0  0  0  0
    1.5102   -1.9389    0.0000 H   0  0  0  0  0  0  0  0  0  0  0  0
    0.7697   -1.9389    0.0000 H   0  0  0  0  0  0  0  0  0  0  0  0
    0.0553   -3.8259    0.0000 H   0  0  0  0  0  0  0  0  0  0  0  0
    0.7958   -3.8259    0.0000 H   0  0  0  0  0  0  0  0  0  0  0  0
    0.0813   -1.9389    0.0000 H   0  0  0  0  0  0  0  0  0  0  0  0
   -0.6592   -1.9389    0.0000 H   0  0  0  0  0  0  0  0  0  0  0  0
   -1.3476   -1.9389    0.0000 H   0  0  0  0  0  0  0  0  0  0  0  0
   -2.0882   -1.9389    0.0000 H   0  0  0  0  0  0  0  0  0  0  0  0
   -1.9055   -4.4612    0.0000 H   0  0  0  0  0  0  0  0  0  0  0  0
   -2.3557   -5.4156    0.0000 H   0  0  0  0  0  0  0  0  0  0  0  0
   -3.0268   -6.9229    0.0000 H   0  0  0  0  0  0  0  0  0  0  0  0
   -4.6678   -7.0954    0.0000 H   0  0  0  0  0  0  0  0  0  0  0  0
   -5.6377   -5.7605    0.0000 H   0  0  0  0  0  0  0  0  0  0  0  0
   -4.9665   -4.2532    0.0000 H   0  0  0  0  0  0  0  0  0  0  0  0
    3.2834   -3.9137    0.0000 H   0  0  0  0  0  0  0  0  0  0  0  0
    4.7123   -3.0887    0.0000 H   0  0  0  0  0  0  0  0  0  0  0  0
  1  2  2  0  0  0  0
  2  3  1  0  0  0  0
  3  4  1  0  0  0  0
  4  5  1  0  0  0  0
  5  6  1  0  0  0  0
  6  7  1  0  0  0  0
  7  8  1  0  0  0  0
  8  9  1  0  0  0  0
  9 10  4  0  0  0  0
 10 11  4  0  0  0  0
 11 12  1  0  0  0  0
 12 13  4  0  0  0  0
 13 14  4  0  0  0  0
 14 15  4  0  0  0  0
 15 16  4  0  0  0  0
 16 17  4  0  0  0  0
 12 17  4  0  0  0  0
 11 18  4  0  0  0  0
 18 19  4  0  0  0  0
  9 19  4  0  0  0  0
  2 20  1  0  0  0  0
 20 21  1  0  0  0  0
  3 22  1  0  0  0  0
  3 23  1  0  0  0  0
  4 24  1  0  0  0  0
  4 25  1  0  0  0  0
  5 26  1  0  0  0  0
  5 27  1  0  0  0  0
  6 28  1  0  0  0  0
  6 29  1  0  0  0  0
  8 30  1  0  0  0  0
  8 31  1  0  0  0  0
 10 32  1  0  0  0  0
 13 33  1  0  0  0  0
 14 34  1  0  0  0  0
 15 35  1  0  0  0  0
 16 36  1  0  0  0  0
 17 37  1  0  0  0  0
 20 38  1  0  0  0  0
 21 39  1  0  0  0  0
M  END
>  <Molecule ChEMBL ID>
CHEMBL513160

>  <Compound Key>
1

>  <Active>
0

>  <StandardizerResult>
Dearomatize (ID: Dearomatize)
Clear Stereo (ID: ClearStereo)
Wedge Clean (ID: WedgeClean)
Mesomerize (ID: Mesomerize)
Tautomerize (ID: Tautomerize)
Aromatize (ID: Aromatize)
Add Explicit Hydrogens (ID: AddExplicitH)
Neutralize (ID: Neutralize)
Clean 2D (ID: Clean2D)


$$$$

  Mrv1551102232211292D          

 44 46  0  0  0  0            999 V2000
    7.8592   -2.8875    0.0000 O   0  0  0  0  0  0  0  0  0  0  0  0
    7.8592   -2.0625    0.0000 C   0  0  0  0  0  0  0  0  0  0  0  0
    7.1447   -1.6500    0.0000 C   0  0  0  0  0  0  0  0  0  0  0  0
    6.4302   -2.0625    0.0000 C   0  0  0  0  0  0  0  0  0  0  0  0
    5.7158   -1.6500    0.0000 C   0  0  0  0  0  0  0  0  0  0  0  0
    5.0013   -2.0625    0.0000 C   0  0  0  0  0  0  0  0  0  0  0  0
    4.2868   -1.6500    0.0000 C   0  0  0  0  0  0  0  0  0  0  0  0
    3.5332   -1.9856    0.0000 C   0  0  0  0  0  0  0  0  0  0  0  0
    2.9811   -1.3725    0.0000 C   0  0  0  0  0  0  0  0  0  0  0  0
    2.1606   -1.4587    0.0000 C   0  0  0  0  0  0  0  0  0  0  0  0
    1.8251   -2.2124    0.0000 O   0  0  0  0  0  0  0  0  0  0  0  0
    1.6757   -0.7913    0.0000 N   0  0  0  0  0  0  0  0  0  0  0  0
    0.8552   -0.8775    0.0000 O   0  0  0  0  0  0  0  0  0  0  0  0
    3.3936   -0.6580    0.0000 N   0  0  0  0  0  0  0  0  0  0  0  0
    4.2006   -0.8295    0.0000 O   0  0  0  0  0  0  0  0  0  0  0  0
    8.5737   -1.6500    0.0000 N   0  0  0  0  0  0  0  0  0  0  0  0
    9.2881   -2.0625    0.0000 C   0  0  0  0  0  0  0  0  0  0  0  0
   10.0026   -1.6500    0.0000 C   0  0  0  0  0  0  0  0  0  0  0  0
   10.7171   -2.0625    0.0000 N   0  0  0  0  0  0  0  0  0  0  0  0
   10.7171   -2.8875    0.0000 C   0  0  0  0  0  0  0  0  0  0  0  0
   11.4315   -3.3000    0.0000 C   0  0  0  0  0  0  0  0  0  0  0  0
   11.4315   -4.1250    0.0000 C   0  0  0  0  0  0  0  0  0  0  0  0
   10.7171   -4.5375    0.0000 C   0  0  0  0  0  0  0  0  0  0  0  0
   10.0026   -4.1250    0.0000 C   0  0  0  0  0  0  0  0  0  0  0  0
   10.0026   -3.3000    0.0000 C   0  0  0  0  0  0  0  0  0  0  0  0
    9.2881   -2.8875    0.0000 C   0  0  0  0  0  0  0  0  0  0  0  0
    7.5150   -0.9128    0.0000 H   0  0  0  0  0  0  0  0  0  0  0  0
    6.7745   -0.9128    0.0000 H   0  0  0  0  0  0  0  0  0  0  0  0
    6.0600   -2.7998    0.0000 H   0  0  0  0  0  0  0  0  0  0  0  0
    6.8005   -2.7998    0.0000 H   0  0  0  0  0  0  0  0  0  0  0  0
    6.0860   -0.9128    0.0000 H   0  0  0  0  0  0  0  0  0  0  0  0
    5.3455   -0.9128    0.0000 H   0  0  0  0  0  0  0  0  0  0  0  0
    4.6310   -2.7998    0.0000 H   0  0  0  0  0  0  0  0  0  0  0  0
    5.3716   -2.7998    0.0000 H   0  0  0  0  0  0  0  0  0  0  0  0
    3.3616   -2.7925    0.0000 H   0  0  0  0  0  0  0  0  0  0  0  0
    2.0113   -0.0376    0.0000 H   0  0  0  0  0  0  0  0  0  0  0  0
    0.3703   -0.2101    0.0000 H   0  0  0  0  0  0  0  0  0  0  0  0
    8.5737   -0.8250    0.0000 H   0  0  0  0  0  0  0  0  0  0  0  0
   10.0026   -0.8250    0.0000 H   0  0  0  0  0  0  0  0  0  0  0  0
   12.1460   -2.8875    0.0000 H   0  0  0  0  0  0  0  0  0  0  0  0
   12.1460   -4.5375    0.0000 H   0  0  0  0  0  0  0  0  0  0  0  0
   10.7171   -5.3625    0.0000 H   0  0  0  0  0  0  0  0  0  0  0  0
    9.2881   -4.5375    0.0000 H   0  0  0  0  0  0  0  0  0  0  0  0
    8.5737   -3.3000    0.0000 H   0  0  0  0  0  0  0  0  0  0  0  0
  1  2  2  0  0  0  0
  2  3  1  0  0  0  0
  3  4  1  0  0  0  0
  4  5  1  0  0  0  0
  5  6  1  0  0  0  0
  6  7  1  0  0  0  0
  7  8  4  0  0  0  0
  8  9  4  0  0  0  0
  9 10  1  0  0  0  0
 10 11  2  0  0  0  0
 10 12  1  0  0  0  0
 12 13  1  0  0  0  0
  9 14  4  0  0  0  0
 14 15  4  0  0  0  0
  7 15  4  0  0  0  0
  2 16  1  0  0  0  0
 16 17  1  0  0  0  0
 17 18  4  0  0  0  0
 18 19  4  0  0  0  0
 19 20  4  0  0  0  0
 20 21  4  0  0  0  0
 21 22  4  0  0  0  0
 22 23  4  0  0  0  0
 23 24  4  0  0  0  0
 24 25  4  0  0  0  0
 20 25  4  0  0  0  0
 25 26  4  0  0  0  0
 17 26  4  0  0  0  0
  3 27  1  0  0  0  0
  3 28  1  0  0  0  0
  4 29  1  0  0  0  0
  4 30  1  0  0  0  0
  5 31  1  0  0  0  0
  5 32  1  0  0  0  0
  6 33  1  0  0  0  0
  6 34  1  0  0  0  0
  8 35  1  0  0  0  0
 12 36  1  0  0  0  0
 13 37  1  0  0  0  0
 16 38  1  0  0  0  0
 18 39  1  0  0  0  0
 21 40  1  0  0  0  0
 22 41  1  0  0  0  0
 23 42  1  0  0  0  0
 24 43  1  0  0  0  0
 26 44  1  0  0  0  0
M  END
>  <Molecule ChEMBL ID>
CHEMBL511715

>  <Compound Key>
11

>  <Active>
0

>  <StandardizerResult>
Dearomatize (ID: Dearomatize)
Clear Stereo (ID: ClearStereo)
Wedge Clean (ID: WedgeClean)
Mesomerize (ID: Mesomerize)
Tautomerize (ID: Tautomerize)
Aromatize (ID: Aromatize)
Add Explicit Hydrogens (ID: AddExplicitH)
Neutralize (ID: Neutralize)
Clean 2D (ID: Clean2D)


$$$$

  Mrv1551102232211292D          

 52 54  0  0  0  0            999 V2000
   -4.2635   -4.0938    0.0000 C   0  0  0  0  0  0  0  0  0  0  0  0
   -4.2635   -4.9188    0.0000 C   0  0  0  0  0  0  0  0  0  0  0  0
   -3.5490   -5.3313    0.0000 N   0  0  0  0  0  0  0  0  0  0  0  0
   -3.5490   -6.1563    0.0000 C   0  0  0  0  0  0  0  0  0  0  0  0
   -2.8345   -6.5688    0.0000 N   0  0  0  0  0  0  0  0  0  0  0  0
   -2.8345   -7.3938    0.0000 C   0  0  0  0  0  0  0  0  0  0  0  0
   -2.1200   -6.1563    0.0000 C   0  0  0  0  0  0  0  0  0  0  0  0
   -2.1200   -5.3313    0.0000 C   0  0  0  0  0  0  0  0  0  0  0  0
   -1.4056   -4.9188    0.0000 C   0  0  0  0  0  0  0  0  0  0  0  0
   -0.6911   -5.3313    0.0000 C   0  0  0  0  0  0  0  0  0  0  0  0
    0.0234   -4.9188    0.0000 O   0  0  0  0  0  0  0  0  0  0  0  0
    0.7378   -5.3313    0.0000 C   0  0  0  0  0  0  0  0  0  0  0  0
    1.4523   -4.9188    0.0000 C   0  0  0  0  0  0  0  0  0  0  0  0
    2.1668   -5.3313    0.0000 C   0  0  0  0  0  0  0  0  0  0  0  0
    2.8813   -4.9188    0.0000 C   0  0  0  0  0  0  0  0  0  0  0  0
    3.5957   -5.3313    0.0000 C   0  0  0  0  0  0  0  0  0  0  0  0
    3.5957   -6.1563    0.0000 O   0  0  0  0  0  0  0  0  0  0  0  0
    4.3102   -4.9188    0.0000 N   0  0  0  0  0  0  0  0  0  0  0  0
    5.0247   -5.3313    0.0000 O   0  0  0  0  0  0  0  0  0  0  0  0
   -0.6911   -6.1563    0.0000 C   0  0  0  0  0  0  0  0  0  0  0  0
   -1.4056   -6.5688    0.0000 C   0  0  0  0  0  0  0  0  0  0  0  0
   -4.2635   -6.5688    0.0000 C   0  0  0  0  0  0  0  0  0  0  0  0
   -4.2635   -7.3938    0.0000 C   0  0  0  0  0  0  0  0  0  0  0  0
   -4.9779   -7.8063    0.0000 C   0  0  0  0  0  0  0  0  0  0  0  0
   -5.6924   -7.3938    0.0000 C   0  0  0  0  0  0  0  0  0  0  0  0
   -5.6924   -6.5688    0.0000 C   0  0  0  0  0  0  0  0  0  0  0  0
   -4.9779   -6.1563    0.0000 C   0  0  0  0  0  0  0  0  0  0  0  0
   -4.9779   -5.3313    0.0000 N   0  0  0  0  0  0  0  0  0  0  0  0
   -3.4385   -4.0938    0.0000 H   0  0  0  0  0  0  0  0  0  0  0  0
   -4.2635   -3.2688    0.0000 H   0  0  0  0  0  0  0  0  0  0  0  0
   -5.0885   -4.0938    0.0000 H   0  0  0  0  0  0  0  0  0  0  0  0
   -3.6595   -7.3938    0.0000 H   0  0  0  0  0  0  0  0  0  0  0  0
   -2.8345   -8.2188    0.0000 H   0  0  0  0  0  0  0  0  0  0  0  0
   -2.0095   -7.3938    0.0000 H   0  0  0  0  0  0  0  0  0  0  0  0
   -2.8345   -4.9188    0.0000 H   0  0  0  0  0  0  0  0  0  0  0  0
   -1.4056   -4.0938    0.0000 H   0  0  0  0  0  0  0  0  0  0  0  0
    0.3676   -6.0686    0.0000 H   0  0  0  0  0  0  0  0  0  0  0  0
    1.1081   -6.0686    0.0000 H   0  0  0  0  0  0  0  0  0  0  0  0
    1.8226   -4.1816    0.0000 H   0  0  0  0  0  0  0  0  0  0  0  0
    1.0821   -4.1816    0.0000 H   0  0  0  0  0  0  0  0  0  0  0  0
    1.7965   -6.0686    0.0000 H   0  0  0  0  0  0  0  0  0  0  0  0
    2.5370   -6.0686    0.0000 H   0  0  0  0  0  0  0  0  0  0  0  0
    3.2515   -4.1816    0.0000 H   0  0  0  0  0  0  0  0  0  0  0  0
    2.5110   -4.1816    0.0000 H   0  0  0  0  0  0  0  0  0  0  0  0
    4.3102   -4.0938    0.0000 H   0  0  0  0  0  0  0  0  0  0  0  0
    5.0247   -6.1563    0.0000 H   0  0  0  0  0  0  0  0  0  0  0  0
    0.0234   -6.5688    0.0000 H   0  0  0  0  0  0  0  0  0  0  0  0
   -1.4056   -7.3938    0.0000 H   0  0  0  0  0  0  0  0  0  0  0  0
   -4.0499   -8.1907    0.0000 H   0  0  0  0  0  0  0  0  0  0  0  0
   -4.9779   -8.6313    0.0000 H   0  0  0  0  0  0  0  0  0  0  0  0
   -6.4069   -7.8063    0.0000 H   0  0  0  0  0  0  0  0  0  0  0  0
   -6.4069   -6.1563    0.0000 H   0  0  0  0  0  0  0  0  0  0  0  0
  1  2  1  0  0  0  0
  2  3  4  0  0  0  0
  3  4  4  0  0  0  0
  4  5  1  0  0  0  0
  5  6  1  0  0  0  0
  5  7  1  0  0  0  0
  7  8  4  0  0  0  0
  8  9  4  0  0  0  0
  9 10  4  0  0  0  0
 10 11  1  0  0  0  0
 11 12  1  0  0  0  0
 12 13  1  0  0  0  0
 13 14  1  0  0  0  0
 14 15  1  0  0  0  0
 15 16  1  0  0  0  0
 16 17  2  0  0  0  0
 16 18  1  0  0  0  0
 18 19  1  0  0  0  0
 10 20  4  0  0  0  0
 20 21  4  0  0  0  0
  7 21  4  0  0  0  0
  4 22  4  0  0  0  0
 22 23  4  0  0  0  0
 23 24  4  0  0  0  0
 24 25  4  0  0  0  0
 25 26  4  0  0  0  0
 26 27  4  0  0  0  0
 22 27  4  0  0  0  0
 27 28  4  0  0  0  0
  2 28  4  0  0  0  0
  1 29  1  0  0  0  0
  1 30  1  0  0  0  0
  1 31  1  0  0  0  0
  6 32  1  0  0  0  0
  6 33  1  0  0  0  0
  6 34  1  0  0  0  0
  8 35  1  0  0  0  0
  9 36  1  0  0  0  0
 12 37  1  0  0  0  0
 12 38  1  0  0  0  0
 13 39  1  0  0  0  0
 13 40  1  0  0  0  0
 14 41  1  0  0  0  0
 14 42  1  0  0  0  0
 15 43  1  0  0  0  0
 15 44  1  0  0  0  0
 18 45  1  0  0  0  0
 19 46  1  0  0  0  0
 20 47  1  0  0  0  0
 21 48  1  0  0  0  0
 23 49  1  0  0  0  0
 24 50  1  0  0  0  0
 25 51  1  0  0  0  0
 26 52  1  0  0  0  0
M  END
>  <Molecule ChEMBL ID>
CHEMBL3775817

>  <Compound Key>
7c

>  <Active>
0

>  <StandardizerResult>
Dearomatize (ID: Dearomatize)
Clear Stereo (ID: ClearStereo)
Wedge Clean (ID: WedgeClean)
Mesomerize (ID: Mesomerize)
Tautomerize (ID: Tautomerize)
Aromatize (ID: Aromatize)
Add Explicit Hydrogens (ID: AddExplicitH)
Neutralize (ID: Neutralize)
Clean 2D (ID: Clean2D)


$$$$

  Mrv1551102232211292D          

 48 51  0  0  0  0            999 V2000
    5.4957    4.8229    0.0000 C   0  0  0  0  0  0  0  0  0  0  0  0
    4.7812    4.4104    0.0000 O   0  0  0  0  0  0  0  0  0  0  0  0
    4.7812    3.5854    0.0000 C   0  0  0  0  0  0  0  0  0  0  0  0
    5.4957    3.1729    0.0000 C   0  0  0  0  0  0  0  0  0  0  0  0
    5.4957    2.3479    0.0000 C   0  0  0  0  0  0  0  0  0  0  0  0
    4.7812    1.9354    0.0000 C   0  0  0  0  0  0  0  0  0  0  0  0
    4.0668    2.3479    0.0000 C   0  0  0  0  0  0  0  0  0  0  0  0
    3.3523    1.9354    0.0000 C   0  0  0  0  0  0  0  0  0  0  0  0
    3.3523    1.1104    0.0000 C   0  0  0  0  0  0  0  0  0  0  0  0
    2.6378    0.6979    0.0000 C   0  0  0  0  0  0  0  0  0  0  0  0
    1.9233    1.1104    0.0000 C   0  0  0  0  0  0  0  0  0  0  0  0
    1.1387    0.8555    0.0000 C   0  0  0  0  0  0  0  0  0  0  0  0
    0.8838    0.0709    0.0000 N   0  0  0  0  0  0  0  0  0  0  0  0
    1.4358   -0.5422    0.0000 C   0  0  0  0  0  0  0  0  0  0  0  0
    2.2428   -0.3707    0.0000 O   0  0  0  0  0  0  0  0  0  0  0  0
    1.1809   -1.3269    0.0000 C   0  0  0  0  0  0  0  0  0  0  0  0
    1.7329   -1.9399    0.0000 C   0  0  0  0  0  0  0  0  0  0  0  0
    1.4780   -2.7246    0.0000 C   0  0  0  0  0  0  0  0  0  0  0  0
    0.6710   -2.8961    0.0000 C   0  0  0  0  0  0  0  0  0  0  0  0
    0.4161   -3.6807    0.0000 C   0  0  0  0  0  0  0  0  0  0  0  0
    0.9681   -4.2938    0.0000 O   0  0  0  0  0  0  0  0  0  0  0  0
   -0.3909   -3.8522    0.0000 N   0  0  0  0  0  0  0  0  0  0  0  0
   -0.6459   -4.6369    0.0000 O   0  0  0  0  0  0  0  0  0  0  0  0
    0.1190   -2.2830    0.0000 C   0  0  0  0  0  0  0  0  0  0  0  0
    0.3739   -1.4984    0.0000 C   0  0  0  0  0  0  0  0  0  0  0  0
    0.6538    1.5229    0.0000 N   0  0  0  0  0  0  0  0  0  0  0  0
    1.1387    2.1904    0.0000 N   0  0  0  0  0  0  0  0  0  0  0  0
    1.9233    1.9354    0.0000 C   0  0  0  0  0  0  0  0  0  0  0  0
    2.6378    2.3479    0.0000 C   0  0  0  0  0  0  0  0  0  0  0  0
    4.0668    3.1729    0.0000 C   0  0  0  0  0  0  0  0  0  0  0  0
    3.3523    3.5854    0.0000 F   0  0  0  0  0  0  0  0  0  0  0  0
    5.9082    4.1085    0.0000 H   0  0  0  0  0  0  0  0  0  0  0  0
    6.2102    5.2354    0.0000 H   0  0  0  0  0  0  0  0  0  0  0  0
    5.0832    5.5374    0.0000 H   0  0  0  0  0  0  0  0  0  0  0  0
    6.2102    3.5854    0.0000 H   0  0  0  0  0  0  0  0  0  0  0  0
    6.2102    1.9354    0.0000 H   0  0  0  0  0  0  0  0  0  0  0  0
    4.7812    1.1104    0.0000 H   0  0  0  0  0  0  0  0  0  0  0  0
    4.0668    0.6979    0.0000 H   0  0  0  0  0  0  0  0  0  0  0  0
    2.6378   -0.1271    0.0000 H   0  0  0  0  0  0  0  0  0  0  0  0
    0.0768   -0.1007    0.0000 H   0  0  0  0  0  0  0  0  0  0  0  0
    2.5399   -1.7684    0.0000 H   0  0  0  0  0  0  0  0  0  0  0  0
    2.0300   -3.3377    0.0000 H   0  0  0  0  0  0  0  0  0  0  0  0
   -0.9429   -3.2392    0.0000 H   0  0  0  0  0  0  0  0  0  0  0  0
   -1.4528   -4.8084    0.0000 H   0  0  0  0  0  0  0  0  0  0  0  0
   -0.6880   -2.4545    0.0000 H   0  0  0  0  0  0  0  0  0  0  0  0
   -0.1781   -0.8853    0.0000 H   0  0  0  0  0  0  0  0  0  0  0  0
   -0.1712    1.5229    0.0000 H   0  0  0  0  0  0  0  0  0  0  0  0
    2.6378    3.1729    0.0000 H   0  0  0  0  0  0  0  0  0  0  0  0
  1  2  1  0  0  0  0
  2  3  1  0  0  0  0
  3  4  4  0  0  0  0
  4  5  4  0  0  0  0
  5  6  4  0  0  0  0
  6  7  4  0  0  0  0
  7  8  1  0  0  0  0
  8  9  4  0  0  0  0
  9 10  4  0  0  0  0
 10 11  4  0  0  0  0
 11 12  4  0  0  0  0
 12 13  1  0  0  0  0
 13 14  1  0  0  0  0
 14 15  2  0  0  0  0
 14 16  1  0  0  0  0
 16 17  4  0  0  0  0
 17 18  4  0  0  0  0
 18 19  4  0  0  0  0
 19 20  1  0  0  0  0
 20 21  2  0  0  0  0
 20 22  1  0  0  0  0
 22 23  1  0  0  0  0
 19 24  4  0  0  0  0
 24 25  4  0  0  0  0
 16 25  4  0  0  0  0
 12 26  4  0  0  0  0
 26 27  4  0  0  0  0
 27 28  4  0  0  0  0
 11 28  4  0  0  0  0
 28 29  4  0  0  0  0
  8 29  4  0  0  0  0
  7 30  4  0  0  0  0
  3 30  4  0  0  0  0
 30 31  1  0  0  0  0
  1 32  1  0  0  0  0
  1 33  1  0  0  0  0
  1 34  1  0  0  0  0
  4 35  1  0  0  0  0
  5 36  1  0  0  0  0
  6 37  1  0  0  0  0
  9 38  1  0  0  0  0
 10 39  1  0  0  0  0
 13 40  1  0  0  0  0
 17 41  1  0  0  0  0
 18 42  1  0  0  0  0
 22 43  1  0  0  0  0
 23 44  1  0  0  0  0
 24 45  1  0  0  0  0
 25 46  1  0  0  0  0
 26 47  1  0  0  0  0
 29 48  1  0  0  0  0
M  END
>  <Molecule ChEMBL ID>
CHEMBL4205573

>  <Compound Key>
7a

>  <Active>
0

>  <StandardizerResult>
Dearomatize (ID: Dearomatize)
Clear Stereo (ID: ClearStereo)
Wedge Clean (ID: WedgeClean)
Mesomerize (ID: Mesomerize)
Tautomerize (ID: Tautomerize)
Aromatize (ID: Aromatize)
Add Explicit Hydrogens (ID: AddExplicitH)
Neutralize (ID: Neutralize)
Clean 2D (ID: Clean2D)


$$$$

  Mrv1551102232211292D          

 44 47  0  0  0  0            999 V2000
   -1.7499   -5.6315    0.0000 O   0  0  0  0  0  0  0  0  0  0  0  0
   -0.9429   -5.4600    0.0000 C   0  0  0  0  0  0  0  0  0  0  0  0
   -0.3909   -6.0731    0.0000 N   0  0  0  0  0  0  0  0  0  0  0  0
   -0.6459   -6.8577    0.0000 O   0  0  0  0  0  0  0  0  0  0  0  0
   -0.6880   -4.6754    0.0000 C   0  0  0  0  0  0  0  0  0  0  0  0
   -1.2400   -4.0623    0.0000 C   0  0  0  0  0  0  0  0  0  0  0  0
   -0.9851   -3.2777    0.0000 C   0  0  0  0  0  0  0  0  0  0  0  0
   -0.1781   -3.1061    0.0000 C   0  0  0  0  0  0  0  0  0  0  0  0
    0.0768   -2.3215    0.0000 C   0  0  0  0  0  0  0  0  0  0  0  0
   -0.4752   -1.7084    0.0000 O   0  0  0  0  0  0  0  0  0  0  0  0
    0.8838   -2.1500    0.0000 N   0  0  0  0  0  0  0  0  0  0  0  0
    1.1387   -1.3654    0.0000 C   0  0  0  0  0  0  0  0  0  0  0  0
    0.6538   -0.6979    0.0000 N   0  0  0  0  0  0  0  0  0  0  0  0
    1.1387   -0.0305    0.0000 N   0  0  0  0  0  0  0  0  0  0  0  0
    1.9233   -0.2854    0.0000 C   0  0  0  0  0  0  0  0  0  0  0  0
    2.6378    0.1271    0.0000 C   0  0  0  0  0  0  0  0  0  0  0  0
    3.3523   -0.2854    0.0000 C   0  0  0  0  0  0  0  0  0  0  0  0
    4.0668    0.1271    0.0000 C   0  0  0  0  0  0  0  0  0  0  0  0
    4.0668    0.9521    0.0000 C   0  0  0  0  0  0  0  0  0  0  0  0
    4.7812    1.3646    0.0000 C   0  0  0  0  0  0  0  0  0  0  0  0
    5.4957    0.9521    0.0000 C   0  0  0  0  0  0  0  0  0  0  0  0
    5.4957    0.1271    0.0000 C   0  0  0  0  0  0  0  0  0  0  0  0
    4.7812   -0.2854    0.0000 C   0  0  0  0  0  0  0  0  0  0  0  0
    4.7812   -1.1104    0.0000 Cl  0  0  0  0  0  0  0  0  0  0  0  0
    3.3523   -1.1104    0.0000 C   0  0  0  0  0  0  0  0  0  0  0  0
    2.6378   -1.5229    0.0000 C   0  0  0  0  0  0  0  0  0  0  0  0
    1.9233   -1.1104    0.0000 C   0  0  0  0  0  0  0  0  0  0  0  0
    0.3739   -3.7192    0.0000 C   0  0  0  0  0  0  0  0  0  0  0  0
    0.1190   -4.5038    0.0000 C   0  0  0  0  0  0  0  0  0  0  0  0
    0.4161   -5.9016    0.0000 H   0  0  0  0  0  0  0  0  0  0  0  0
   -1.4528   -7.0292    0.0000 H   0  0  0  0  0  0  0  0  0  0  0  0
   -2.0470   -4.2338    0.0000 H   0  0  0  0  0  0  0  0  0  0  0  0
   -1.5371   -2.6646    0.0000 H   0  0  0  0  0  0  0  0  0  0  0  0
    1.4358   -2.7631    0.0000 H   0  0  0  0  0  0  0  0  0  0  0  0
   -0.1712   -0.6979    0.0000 H   0  0  0  0  0  0  0  0  0  0  0  0
    2.6378    0.9521    0.0000 H   0  0  0  0  0  0  0  0  0  0  0  0
    3.3523    1.3646    0.0000 H   0  0  0  0  0  0  0  0  0  0  0  0
    4.7812    2.1896    0.0000 H   0  0  0  0  0  0  0  0  0  0  0  0
    6.2102    1.3646    0.0000 H   0  0  0  0  0  0  0  0  0  0  0  0
    6.2102   -0.2854    0.0000 H   0  0  0  0  0  0  0  0  0  0  0  0
    4.0668   -1.5229    0.0000 H   0  0  0  0  0  0  0  0  0  0  0  0
    2.6378   -2.3479    0.0000 H   0  0  0  0  0  0  0  0  0  0  0  0
    1.1809   -3.5477    0.0000 H   0  0  0  0  0  0  0  0  0  0  0  0
    0.6710   -5.1169    0.0000 H   0  0  0  0  0  0  0  0  0  0  0  0
  1  2  2  0  0  0  0
  2  3  1  0  0  0  0
  3  4  1  0  0  0  0
  2  5  1  0  0  0  0
  5  6  4  0  0  0  0
  6  7  4  0  0  0  0
  7  8  4  0  0  0  0
  8  9  1  0  0  0  0
  9 10  2  0  0  0  0
  9 11  1  0  0  0  0
 11 12  1  0  0  0  0
 12 13  4  0  0  0  0
 13 14  4  0  0  0  0
 14 15  4  0  0  0  0
 15 16  4  0  0  0  0
 16 17  4  0  0  0  0
 17 18  1  0  0  0  0
 18 19  4  0  0  0  0
 19 20  4  0  0  0  0
 20 21  4  0  0  0  0
 21 22  4  0  0  0  0
 22 23  4  0  0  0  0
 18 23  4  0  0  0  0
 23 24  1  0  0  0  0
 17 25  4  0  0  0  0
 25 26  4  0  0  0  0
 26 27  4  0  0  0  0
 12 27  4  0  0  0  0
 15 27  4  0  0  0  0
  8 28  4  0  0  0  0
 28 29  4  0  0  0  0
  5 29  4  0  0  0  0
  3 30  1  0  0  0  0
  4 31  1  0  0  0  0
  6 32  1  0  0  0  0
  7 33  1  0  0  0  0
 11 34  1  0  0  0  0
 13 35  1  0  0  0  0
 16 36  1  0  0  0  0
 19 37  1  0  0  0  0
 20 38  1  0  0  0  0
 21 39  1  0  0  0  0
 22 40  1  0  0  0  0
 25 41  1  0  0  0  0
 26 42  1  0  0  0  0
 28 43  1  0  0  0  0
 29 44  1  0  0  0  0
M  END
>  <Molecule ChEMBL ID>
CHEMBL4217618

>  <Compound Key>
7k

>  <Active>
0

>  <StandardizerResult>
Dearomatize (ID: Dearomatize)
Clear Stereo (ID: ClearStereo)
Wedge Clean (ID: WedgeClean)
Mesomerize (ID: Mesomerize)
Tautomerize (ID: Tautomerize)
Aromatize (ID: Aromatize)
Add Explicit Hydrogens (ID: AddExplicitH)
Neutralize (ID: Neutralize)
Clean 2D (ID: Clean2D)


$$$$

  Mrv1551102232211292D          

 39 40  0  0  0  0            999 V2000
    2.5689   -1.8507    0.0000 O   0  0  0  0  0  0  0  0  0  0  0  0
    2.5689   -2.6757    0.0000 C   0  0  0  0  0  0  0  0  0  0  0  0
    1.8545   -3.0882    0.0000 C   0  0  0  0  0  0  0  0  0  0  0  0
    1.1400   -2.6757    0.0000 C   0  0  0  0  0  0  0  0  0  0  0  0
    0.4255   -3.0882    0.0000 C   0  0  0  0  0  0  0  0  0  0  0  0
   -0.2890   -2.6757    0.0000 C   0  0  0  0  0  0  0  0  0  0  0  0
   -1.0034   -3.0882    0.0000 N   0  0  0  0  0  0  0  0  0  0  0  0
   -1.7179   -2.6757    0.0000 C   0  0  0  0  0  0  0  0  0  0  0  0
   -1.7179   -1.8507    0.0000 O   0  0  0  0  0  0  0  0  0  0  0  0
   -2.4324   -3.0882    0.0000 C   0  0  0  0  0  0  0  0  0  0  0  0
   -2.5186   -3.9087    0.0000 C   0  0  0  0  0  0  0  0  0  0  0  0
   -3.3256   -4.0802    0.0000 C   0  0  0  0  0  0  0  0  0  0  0  0
   -3.6611   -4.8339    0.0000 C   0  0  0  0  0  0  0  0  0  0  0  0
   -3.1762   -5.5013    0.0000 C   0  0  0  0  0  0  0  0  0  0  0  0
   -3.5118   -6.2550    0.0000 C   0  0  0  0  0  0  0  0  0  0  0  0
   -4.3323   -6.3413    0.0000 C   0  0  0  0  0  0  0  0  0  0  0  0
   -4.8172   -5.6738    0.0000 C   0  0  0  0  0  0  0  0  0  0  0  0
   -4.4816   -4.9201    0.0000 C   0  0  0  0  0  0  0  0  0  0  0  0
   -3.7381   -3.3658    0.0000 O   0  0  0  0  0  0  0  0  0  0  0  0
   -3.1860   -2.7527    0.0000 N   0  0  0  0  0  0  0  0  0  0  0  0
    3.2834   -3.0882    0.0000 N   0  0  0  0  0  0  0  0  0  0  0  0
    3.9979   -2.6757    0.0000 O   0  0  0  0  0  0  0  0  0  0  0  0
    1.4842   -3.8255    0.0000 H   0  0  0  0  0  0  0  0  0  0  0  0
    2.2247   -3.8255    0.0000 H   0  0  0  0  0  0  0  0  0  0  0  0
    1.5102   -1.9385    0.0000 H   0  0  0  0  0  0  0  0  0  0  0  0
    0.7697   -1.9385    0.0000 H   0  0  0  0  0  0  0  0  0  0  0  0
    0.0553   -3.8255    0.0000 H   0  0  0  0  0  0  0  0  0  0  0  0
    0.7958   -3.8255    0.0000 H   0  0  0  0  0  0  0  0  0  0  0  0
    0.0813   -1.9385    0.0000 H   0  0  0  0  0  0  0  0  0  0  0  0
   -0.6592   -1.9385    0.0000 H   0  0  0  0  0  0  0  0  0  0  0  0
   -1.0034   -3.9132    0.0000 H   0  0  0  0  0  0  0  0  0  0  0  0
   -1.9055   -4.4607    0.0000 H   0  0  0  0  0  0  0  0  0  0  0  0
   -2.3557   -5.4151    0.0000 H   0  0  0  0  0  0  0  0  0  0  0  0
   -3.0268   -6.9225    0.0000 H   0  0  0  0  0  0  0  0  0  0  0  0
   -4.6678   -7.0949    0.0000 H   0  0  0  0  0  0  0  0  0  0  0  0
   -5.6377   -5.7600    0.0000 H   0  0  0  0  0  0  0  0  0  0  0  0
   -4.9665   -4.2527    0.0000 H   0  0  0  0  0  0  0  0  0  0  0  0
    3.2834   -3.9132    0.0000 H   0  0  0  0  0  0  0  0  0  0  0  0
    4.7123   -3.0882    0.0000 H   0  0  0  0  0  0  0  0  0  0  0  0
  1  2  2  0  0  0  0
  2  3  1  0  0  0  0
  3  4  1  0  0  0  0
  4  5  1  0  0  0  0
  5  6  1  0  0  0  0
  6  7  1  0  0  0  0
  7  8  1  0  0  0  0
  8  9  2  0  0  0  0
  8 10  1  0  0  0  0
 10 11  4  0  0  0  0
 11 12  4  0  0  0  0
 12 13  1  0  0  0  0
 13 14  4  0  0  0  0
 14 15  4  0  0  0  0
 15 16  4  0  0  0  0
 16 17  4  0  0  0  0
 17 18  4  0  0  0  0
 13 18  4  0  0  0  0
 12 19  4  0  0  0  0
 19 20  4  0  0  0  0
 10 20  4  0  0  0  0
  2 21  1  0  0  0  0
 21 22  1  0  0  0  0
  3 23  1  0  0  0  0
  3 24  1  0  0  0  0
  4 25  1  0  0  0  0
  4 26  1  0  0  0  0
  5 27  1  0  0  0  0
  5 28  1  0  0  0  0
  6 29  1  0  0  0  0
  6 30  1  0  0  0  0
  7 31  1  0  0  0  0
 11 32  1  0  0  0  0
 14 33  1  0  0  0  0
 15 34  1  0  0  0  0
 16 35  1  0  0  0  0
 17 36  1  0  0  0  0
 18 37  1  0  0  0  0
 21 38  1  0  0  0  0
 22 39  1  0  0  0  0
M  END
>  <Molecule ChEMBL ID>
CHEMBL467998

>  <Compound Key>
2

>  <Active>
0

>  <StandardizerResult>
Dearomatize (ID: Dearomatize)
Clear Stereo (ID: ClearStereo)
Wedge Clean (ID: WedgeClean)
Mesomerize (ID: Mesomerize)
Tautomerize (ID: Tautomerize)
Aromatize (ID: Aromatize)
Add Explicit Hydrogens (ID: AddExplicitH)
Neutralize (ID: Neutralize)
Clean 2D (ID: Clean2D)


$$$$

  Mrv1551102232211292D          

 53 55  0  0  0  0            999 V2000
    0.7413   -1.2310    0.0000 C   0  0  0  0  0  0  0  0  0  0  0  0
    0.7413   -0.4060    0.0000 C   0  0  0  0  0  0  0  0  0  0  0  0
    0.0269    0.0065    0.0000 N   0  0  0  0  0  0  0  0  0  0  0  0
    0.0269    0.8315    0.0000 C   0  0  0  0  0  0  0  0  0  0  0  0
    0.7413    1.2440    0.0000 C   0  0  0  0  0  0  0  0  0  0  0  0
    1.4558    0.8315    0.0000 C   0  0  0  0  0  0  0  0  0  0  0  0
    2.1703    1.2440    0.0000 N   0  0  0  0  0  0  0  0  0  0  0  0
    2.1703    2.0690    0.0000 C   0  0  0  0  0  0  0  0  0  0  0  0
    2.8848    0.8315    0.0000 C   0  0  0  0  0  0  0  0  0  0  0  0
    3.5992    1.2440    0.0000 C   0  0  0  0  0  0  0  0  0  0  0  0
    4.3137    0.8315    0.0000 C   0  0  0  0  0  0  0  0  0  0  0  0
    4.3137    0.0065    0.0000 C   0  0  0  0  0  0  0  0  0  0  0  0
    5.0282   -0.4060    0.0000 O   0  0  0  0  0  0  0  0  0  0  0  0
    5.7426    0.0065    0.0000 C   0  0  0  0  0  0  0  0  0  0  0  0
    6.4571   -0.4060    0.0000 C   0  0  0  0  0  0  0  0  0  0  0  0
    7.1716    0.0065    0.0000 C   0  0  0  0  0  0  0  0  0  0  0  0
    7.8861   -0.4060    0.0000 C   0  0  0  0  0  0  0  0  0  0  0  0
    8.6005    0.0065    0.0000 C   0  0  0  0  0  0  0  0  0  0  0  0
    8.6005    0.8315    0.0000 O   0  0  0  0  0  0  0  0  0  0  0  0
    9.3150   -0.4060    0.0000 N   0  0  0  0  0  0  0  0  0  0  0  0
   10.0295    0.0065    0.0000 O   0  0  0  0  0  0  0  0  0  0  0  0
    3.5992   -0.4060    0.0000 C   0  0  0  0  0  0  0  0  0  0  0  0
    2.8848    0.0065    0.0000 C   0  0  0  0  0  0  0  0  0  0  0  0
    1.4558    0.0065    0.0000 N   0  0  0  0  0  0  0  0  0  0  0  0
    0.5698    2.0510    0.0000 C   0  0  0  0  0  0  0  0  0  0  0  0
   -0.2507    2.1372    0.0000 C   0  0  0  0  0  0  0  0  0  0  0  0
   -0.5862    1.3836    0.0000 C   0  0  0  0  0  0  0  0  0  0  0  0
   -0.0837   -1.2310    0.0000 H   0  0  0  0  0  0  0  0  0  0  0  0
    0.7413   -2.0560    0.0000 H   0  0  0  0  0  0  0  0  0  0  0  0
    1.5663   -1.2310    0.0000 H   0  0  0  0  0  0  0  0  0  0  0  0
    2.9953    2.0690    0.0000 H   0  0  0  0  0  0  0  0  0  0  0  0
    2.1703    2.8940    0.0000 H   0  0  0  0  0  0  0  0  0  0  0  0
    1.3453    2.0690    0.0000 H   0  0  0  0  0  0  0  0  0  0  0  0
    3.5992    2.0690    0.0000 H   0  0  0  0  0  0  0  0  0  0  0  0
    5.0282    1.2440    0.0000 H   0  0  0  0  0  0  0  0  0  0  0  0
    6.1129    0.7438    0.0000 H   0  0  0  0  0  0  0  0  0  0  0  0
    5.3724    0.7438    0.0000 H   0  0  0  0  0  0  0  0  0  0  0  0
    6.0868   -1.1432    0.0000 H   0  0  0  0  0  0  0  0  0  0  0  0
    6.8274   -1.1432    0.0000 H   0  0  0  0  0  0  0  0  0  0  0  0
    7.5418    0.7438    0.0000 H   0  0  0  0  0  0  0  0  0  0  0  0
    6.8013    0.7438    0.0000 H   0  0  0  0  0  0  0  0  0  0  0  0
    7.5158   -1.1432    0.0000 H   0  0  0  0  0  0  0  0  0  0  0  0
    8.2563   -1.1432    0.0000 H   0  0  0  0  0  0  0  0  0  0  0  0
    9.3150   -1.2310    0.0000 H   0  0  0  0  0  0  0  0  0  0  0  0
   10.7439   -0.4060    0.0000 H   0  0  0  0  0  0  0  0  0  0  0  0
    3.5992   -1.2310    0.0000 H   0  0  0  0  0  0  0  0  0  0  0  0
    2.1703   -0.4060    0.0000 H   0  0  0  0  0  0  0  0  0  0  0  0
    0.9961    2.7573    0.0000 H   0  0  0  0  0  0  0  0  0  0  0  0
    0.2024    2.7897    0.0000 H   0  0  0  0  0  0  0  0  0  0  0  0
   -0.7745    2.7746    0.0000 H   0  0  0  0  0  0  0  0  0  0  0  0
   -1.0672    2.2548    0.0000 H   0  0  0  0  0  0  0  0  0  0  0  0
   -1.3793    1.6110    0.0000 H   0  0  0  0  0  0  0  0  0  0  0  0
   -1.2182    0.8533    0.0000 H   0  0  0  0  0  0  0  0  0  0  0  0
  1  2  1  0  0  0  0
  2  3  4  0  0  0  0
  3  4  4  0  0  0  0
  4  5  4  0  0  0  0
  5  6  4  0  0  0  0
  6  7  1  0  0  0  0
  7  8  1  0  0  0  0
  7  9  1  0  0  0  0
  9 10  4  0  0  0  0
 10 11  4  0  0  0  0
 11 12  4  0  0  0  0
 12 13  1  0  0  0  0
 13 14  1  0  0  0  0
 14 15  1  0  0  0  0
 15 16  1  0  0  0  0
 16 17  1  0  0  0  0
 17 18  1  0  0  0  0
 18 19  2  0  0  0  0
 18 20  1  0  0  0  0
 20 21  1  0  0  0  0
 12 22  4  0  0  0  0
 22 23  4  0  0  0  0
  9 23  4  0  0  0  0
  6 24  4  0  0  0  0
  2 24  4  0  0  0  0
  5 25  1  0  0  0  0
 25 26  1  0  0  0  0
 26 27  1  0  0  0  0
  4 27  1  0  0  0  0
  1 28  1  0  0  0  0
  1 29  1  0  0  0  0
  1 30  1  0  0  0  0
  8 31  1  0  0  0  0
  8 32  1  0  0  0  0
  8 33  1  0  0  0  0
 10 34  1  0  0  0  0
 11 35  1  0  0  0  0
 14 36  1  0  0  0  0
 14 37  1  0  0  0  0
 15 38  1  0  0  0  0
 15 39  1  0  0  0  0
 16 40  1  0  0  0  0
 16 41  1  0  0  0  0
 17 42  1  0  0  0  0
 17 43  1  0  0  0  0
 20 44  1  0  0  0  0
 21 45  1  0  0  0  0
 22 46  1  0  0  0  0
 23 47  1  0  0  0  0
 25 48  1  0  0  0  0
 25 49  1  0  0  0  0
 26 50  1  0  0  0  0
 26 51  1  0  0  0  0
 27 52  1  0  0  0  0
 27 53  1  0  0  0  0
M  END
>  <Molecule ChEMBL ID>
CHEMBL3774691

>  <Compound Key>
16c

>  <Active>
0

>  <StandardizerResult>
Dearomatize (ID: Dearomatize)
Clear Stereo (ID: ClearStereo)
Wedge Clean (ID: WedgeClean)
Mesomerize (ID: Mesomerize)
Tautomerize (ID: Tautomerize)
Aromatize (ID: Aromatize)
Add Explicit Hydrogens (ID: AddExplicitH)
Neutralize (ID: Neutralize)
Clean 2D (ID: Clean2D)


$$$$

  Mrv1551102232211292D          

 48 51  0  0  0  0            999 V2000
    3.3523    4.4104    0.0000 C   0  0  0  0  0  0  0  0  0  0  0  0
    3.3523    3.5854    0.0000 O   0  0  0  0  0  0  0  0  0  0  0  0
    4.0668    3.1729    0.0000 C   0  0  0  0  0  0  0  0  0  0  0  0
    4.7812    3.5854    0.0000 C   0  0  0  0  0  0  0  0  0  0  0  0
    5.4957    3.1729    0.0000 C   0  0  0  0  0  0  0  0  0  0  0  0
    5.4957    2.3479    0.0000 C   0  0  0  0  0  0  0  0  0  0  0  0
    6.2102    1.9354    0.0000 F   0  0  0  0  0  0  0  0  0  0  0  0
    4.7812    1.9354    0.0000 C   0  0  0  0  0  0  0  0  0  0  0  0
    4.0668    2.3479    0.0000 C   0  0  0  0  0  0  0  0  0  0  0  0
    3.3523    1.9354    0.0000 C   0  0  0  0  0  0  0  0  0  0  0  0
    3.3523    1.1104    0.0000 C   0  0  0  0  0  0  0  0  0  0  0  0
    2.6378    0.6979    0.0000 C   0  0  0  0  0  0  0  0  0  0  0  0
    1.9233    1.1104    0.0000 C   0  0  0  0  0  0  0  0  0  0  0  0
    1.1387    0.8555    0.0000 C   0  0  0  0  0  0  0  0  0  0  0  0
    0.8838    0.0709    0.0000 N   0  0  0  0  0  0  0  0  0  0  0  0
    1.4358   -0.5422    0.0000 C   0  0  0  0  0  0  0  0  0  0  0  0
    2.2428   -0.3707    0.0000 O   0  0  0  0  0  0  0  0  0  0  0  0
    1.1809   -1.3269    0.0000 C   0  0  0  0  0  0  0  0  0  0  0  0
    1.7329   -1.9399    0.0000 C   0  0  0  0  0  0  0  0  0  0  0  0
    1.4780   -2.7246    0.0000 C   0  0  0  0  0  0  0  0  0  0  0  0
    0.6710   -2.8961    0.0000 C   0  0  0  0  0  0  0  0  0  0  0  0
    0.4161   -3.6807    0.0000 C   0  0  0  0  0  0  0  0  0  0  0  0
    0.9681   -4.2938    0.0000 O   0  0  0  0  0  0  0  0  0  0  0  0
   -0.3909   -3.8522    0.0000 N   0  0  0  0  0  0  0  0  0  0  0  0
   -0.6459   -4.6369    0.0000 O   0  0  0  0  0  0  0  0  0  0  0  0
    0.1190   -2.2830    0.0000 C   0  0  0  0  0  0  0  0  0  0  0  0
    0.3739   -1.4984    0.0000 C   0  0  0  0  0  0  0  0  0  0  0  0
    0.6538    1.5229    0.0000 N   0  0  0  0  0  0  0  0  0  0  0  0
    1.1387    2.1904    0.0000 N   0  0  0  0  0  0  0  0  0  0  0  0
    1.9233    1.9354    0.0000 C   0  0  0  0  0  0  0  0  0  0  0  0
    2.6378    2.3479    0.0000 C   0  0  0  0  0  0  0  0  0  0  0  0
    4.1773    4.4104    0.0000 H   0  0  0  0  0  0  0  0  0  0  0  0
    3.3523    5.2354    0.0000 H   0  0  0  0  0  0  0  0  0  0  0  0
    2.5273    4.4104    0.0000 H   0  0  0  0  0  0  0  0  0  0  0  0
    4.7812    4.4104    0.0000 H   0  0  0  0  0  0  0  0  0  0  0  0
    6.2102    3.5854    0.0000 H   0  0  0  0  0  0  0  0  0  0  0  0
    4.7812    1.1104    0.0000 H   0  0  0  0  0  0  0  0  0  0  0  0
    4.0668    0.6979    0.0000 H   0  0  0  0  0  0  0  0  0  0  0  0
    2.6378   -0.1271    0.0000 H   0  0  0  0  0  0  0  0  0  0  0  0
    0.0768   -0.1007    0.0000 H   0  0  0  0  0  0  0  0  0  0  0  0
    2.5399   -1.7684    0.0000 H   0  0  0  0  0  0  0  0  0  0  0  0
    2.0300   -3.3377    0.0000 H   0  0  0  0  0  0  0  0  0  0  0  0
   -0.9429   -3.2392    0.0000 H   0  0  0  0  0  0  0  0  0  0  0  0
   -1.4528   -4.8084    0.0000 H   0  0  0  0  0  0  0  0  0  0  0  0
   -0.6880   -2.4545    0.0000 H   0  0  0  0  0  0  0  0  0  0  0  0
   -0.1781   -0.8853    0.0000 H   0  0  0  0  0  0  0  0  0  0  0  0
   -0.1712    1.5229    0.0000 H   0  0  0  0  0  0  0  0  0  0  0  0
    2.6378    3.1729    0.0000 H   0  0  0  0  0  0  0  0  0  0  0  0
  1  2  1  0  0  0  0
  2  3  1  0  0  0  0
  3  4  4  0  0  0  0
  4  5  4  0  0  0  0
  5  6  4  0  0  0  0
  6  7  1  0  0  0  0
  6  8  4  0  0  0  0
  8  9  4  0  0  0  0
  3  9  4  0  0  0  0
  9 10  1  0  0  0  0
 10 11  4  0  0  0  0
 11 12  4  0  0  0  0
 12 13  4  0  0  0  0
 13 14  4  0  0  0  0
 14 15  1  0  0  0  0
 15 16  1  0  0  0  0
 16 17  2  0  0  0  0
 16 18  1  0  0  0  0
 18 19  4  0  0  0  0
 19 20  4  0  0  0  0
 20 21  4  0  0  0  0
 21 22  1  0  0  0  0
 22 23  2  0  0  0  0
 22 24  1  0  0  0  0
 24 25  1  0  0  0  0
 21 26  4  0  0  0  0
 26 27  4  0  0  0  0
 18 27  4  0  0  0  0
 14 28  4  0  0  0  0
 28 29  4  0  0  0  0
 29 30  4  0  0  0  0
 13 30  4  0  0  0  0
 30 31  4  0  0  0  0
 10 31  4  0  0  0  0
  1 32  1  0  0  0  0
  1 33  1  0  0  0  0
  1 34  1  0  0  0  0
  4 35  1  0  0  0  0
  5 36  1  0  0  0  0
  8 37  1  0  0  0  0
 11 38  1  0  0  0  0
 12 39  1  0  0  0  0
 15 40  1  0  0  0  0
 19 41  1  0  0  0  0
 20 42  1  0  0  0  0
 24 43  1  0  0  0  0
 25 44  1  0  0  0  0
 26 45  1  0  0  0  0
 27 46  1  0  0  0  0
 28 47  1  0  0  0  0
 31 48  1  0  0  0  0
M  END
>  <Molecule ChEMBL ID>
CHEMBL4212669

>  <Compound Key>
7f

>  <Active>
0

>  <StandardizerResult>
Dearomatize (ID: Dearomatize)
Clear Stereo (ID: ClearStereo)
Wedge Clean (ID: WedgeClean)
Mesomerize (ID: Mesomerize)
Tautomerize (ID: Tautomerize)
Aromatize (ID: Aromatize)
Add Explicit Hydrogens (ID: AddExplicitH)
Neutralize (ID: Neutralize)
Clean 2D (ID: Clean2D)


$$$$

  Mrv1551102232211292D          

 44 47  0  0  0  0            999 V2000
   -1.7499   -5.6315    0.0000 O   0  0  0  0  0  0  0  0  0  0  0  0
   -0.9429   -5.4600    0.0000 C   0  0  0  0  0  0  0  0  0  0  0  0
   -0.3909   -6.0731    0.0000 N   0  0  0  0  0  0  0  0  0  0  0  0
   -0.6459   -6.8577    0.0000 O   0  0  0  0  0  0  0  0  0  0  0  0
   -0.6880   -4.6754    0.0000 C   0  0  0  0  0  0  0  0  0  0  0  0
   -1.2400   -4.0623    0.0000 C   0  0  0  0  0  0  0  0  0  0  0  0
   -0.9851   -3.2777    0.0000 C   0  0  0  0  0  0  0  0  0  0  0  0
   -0.1781   -3.1061    0.0000 C   0  0  0  0  0  0  0  0  0  0  0  0
    0.0768   -2.3215    0.0000 C   0  0  0  0  0  0  0  0  0  0  0  0
   -0.4752   -1.7084    0.0000 O   0  0  0  0  0  0  0  0  0  0  0  0
    0.8838   -2.1500    0.0000 N   0  0  0  0  0  0  0  0  0  0  0  0
    1.1387   -1.3654    0.0000 C   0  0  0  0  0  0  0  0  0  0  0  0
    0.6538   -0.6979    0.0000 N   0  0  0  0  0  0  0  0  0  0  0  0
    1.1387   -0.0305    0.0000 N   0  0  0  0  0  0  0  0  0  0  0  0
    1.9233   -0.2854    0.0000 C   0  0  0  0  0  0  0  0  0  0  0  0
    2.6378    0.1271    0.0000 C   0  0  0  0  0  0  0  0  0  0  0  0
    3.3523   -0.2854    0.0000 C   0  0  0  0  0  0  0  0  0  0  0  0
    4.0668    0.1271    0.0000 C   0  0  0  0  0  0  0  0  0  0  0  0
    4.0668    0.9521    0.0000 C   0  0  0  0  0  0  0  0  0  0  0  0
    4.7812    1.3646    0.0000 C   0  0  0  0  0  0  0  0  0  0  0  0
    5.4957    0.9521    0.0000 C   0  0  0  0  0  0  0  0  0  0  0  0
    5.4957    0.1271    0.0000 C   0  0  0  0  0  0  0  0  0  0  0  0
    4.7812   -0.2854    0.0000 C   0  0  0  0  0  0  0  0  0  0  0  0
    4.7812   -1.1104    0.0000 F   0  0  0  0  0  0  0  0  0  0  0  0
    3.3523   -1.1104    0.0000 C   0  0  0  0  0  0  0  0  0  0  0  0
    2.6378   -1.5229    0.0000 C   0  0  0  0  0  0  0  0  0  0  0  0
    1.9233   -1.1104    0.0000 C   0  0  0  0  0  0  0  0  0  0  0  0
    0.3739   -3.7192    0.0000 C   0  0  0  0  0  0  0  0  0  0  0  0
    0.1190   -4.5038    0.0000 C   0  0  0  0  0  0  0  0  0  0  0  0
    0.4161   -5.9016    0.0000 H   0  0  0  0  0  0  0  0  0  0  0  0
   -1.4528   -7.0292    0.0000 H   0  0  0  0  0  0  0  0  0  0  0  0
   -2.0470   -4.2338    0.0000 H   0  0  0  0  0  0  0  0  0  0  0  0
   -1.5371   -2.6646    0.0000 H   0  0  0  0  0  0  0  0  0  0  0  0
    1.4358   -2.7631    0.0000 H   0  0  0  0  0  0  0  0  0  0  0  0
   -0.1712   -0.6979    0.0000 H   0  0  0  0  0  0  0  0  0  0  0  0
    2.6378    0.9521    0.0000 H   0  0  0  0  0  0  0  0  0  0  0  0
    3.3523    1.3646    0.0000 H   0  0  0  0  0  0  0  0  0  0  0  0
    4.7812    2.1896    0.0000 H   0  0  0  0  0  0  0  0  0  0  0  0
    6.2102    1.3646    0.0000 H   0  0  0  0  0  0  0  0  0  0  0  0
    6.2102   -0.2854    0.0000 H   0  0  0  0  0  0  0  0  0  0  0  0
    4.0668   -1.5229    0.0000 H   0  0  0  0  0  0  0  0  0  0  0  0
    2.6378   -2.3479    0.0000 H   0  0  0  0  0  0  0  0  0  0  0  0
    1.1809   -3.5477    0.0000 H   0  0  0  0  0  0  0  0  0  0  0  0
    0.6710   -5.1169    0.0000 H   0  0  0  0  0  0  0  0  0  0  0  0
  1  2  2  0  0  0  0
  2  3  1  0  0  0  0
  3  4  1  0  0  0  0
  2  5  1  0  0  0  0
  5  6  4  0  0  0  0
  6  7  4  0  0  0  0
  7  8  4  0  0  0  0
  8  9  1  0  0  0  0
  9 10  2  0  0  0  0
  9 11  1  0  0  0  0
 11 12  1  0  0  0  0
 12 13  4  0  0  0  0
 13 14  4  0  0  0  0
 14 15  4  0  0  0  0
 15 16  4  0  0  0  0
 16 17  4  0  0  0  0
 17 18  1  0  0  0  0
 18 19  4  0  0  0  0
 19 20  4  0  0  0  0
 20 21  4  0  0  0  0
 21 22  4  0  0  0  0
 22 23  4  0  0  0  0
 18 23  4  0  0  0  0
 23 24  1  0  0  0  0
 17 25  4  0  0  0  0
 25 26  4  0  0  0  0
 26 27  4  0  0  0  0
 12 27  4  0  0  0  0
 15 27  4  0  0  0  0
  8 28  4  0  0  0  0
 28 29  4  0  0  0  0
  5 29  4  0  0  0  0
  3 30  1  0  0  0  0
  4 31  1  0  0  0  0
  6 32  1  0  0  0  0
  7 33  1  0  0  0  0
 11 34  1  0  0  0  0
 13 35  1  0  0  0  0
 16 36  1  0  0  0  0
 19 37  1  0  0  0  0
 20 38  1  0  0  0  0
 21 39  1  0  0  0  0
 22 40  1  0  0  0  0
 25 41  1  0  0  0  0
 26 42  1  0  0  0  0
 28 43  1  0  0  0  0
 29 44  1  0  0  0  0
M  END
>  <Molecule ChEMBL ID>
CHEMBL4214775

>  <Compound Key>
7s

>  <Active>
0

>  <StandardizerResult>
Dearomatize (ID: Dearomatize)
Clear Stereo (ID: ClearStereo)
Wedge Clean (ID: WedgeClean)
Mesomerize (ID: Mesomerize)
Tautomerize (ID: Tautomerize)
Aromatize (ID: Aromatize)
Add Explicit Hydrogens (ID: AddExplicitH)
Neutralize (ID: Neutralize)
Clean 2D (ID: Clean2D)


$$$$

  Mrv1551102232211292D          

 44 47  0  0  0  0            999 V2000
   -1.7499   -5.6315    0.0000 O   0  0  0  0  0  0  0  0  0  0  0  0
   -0.9429   -5.4600    0.0000 C   0  0  0  0  0  0  0  0  0  0  0  0
   -0.3909   -6.0731    0.0000 N   0  0  0  0  0  0  0  0  0  0  0  0
   -0.6459   -6.8577    0.0000 O   0  0  0  0  0  0  0  0  0  0  0  0
   -0.6880   -4.6754    0.0000 C   0  0  0  0  0  0  0  0  0  0  0  0
   -1.2400   -4.0623    0.0000 C   0  0  0  0  0  0  0  0  0  0  0  0
   -0.9851   -3.2777    0.0000 C   0  0  0  0  0  0  0  0  0  0  0  0
   -0.1781   -3.1061    0.0000 C   0  0  0  0  0  0  0  0  0  0  0  0
    0.0768   -2.3215    0.0000 C   0  0  0  0  0  0  0  0  0  0  0  0
   -0.4752   -1.7084    0.0000 O   0  0  0  0  0  0  0  0  0  0  0  0
    0.8838   -2.1500    0.0000 N   0  0  0  0  0  0  0  0  0  0  0  0
    1.1387   -1.3654    0.0000 C   0  0  0  0  0  0  0  0  0  0  0  0
    0.6538   -0.6979    0.0000 N   0  0  0  0  0  0  0  0  0  0  0  0
    1.1387   -0.0305    0.0000 N   0  0  0  0  0  0  0  0  0  0  0  0
    1.9233   -0.2854    0.0000 C   0  0  0  0  0  0  0  0  0  0  0  0
    2.6378    0.1271    0.0000 C   0  0  0  0  0  0  0  0  0  0  0  0
    3.3523   -0.2854    0.0000 C   0  0  0  0  0  0  0  0  0  0  0  0
    4.0668    0.1271    0.0000 C   0  0  0  0  0  0  0  0  0  0  0  0
    4.0668    0.9521    0.0000 C   0  0  0  0  0  0  0  0  0  0  0  0
    4.7812    1.3646    0.0000 C   0  0  0  0  0  0  0  0  0  0  0  0
    5.4957    0.9521    0.0000 C   0  0  0  0  0  0  0  0  0  0  0  0
    5.4957    0.1271    0.0000 C   0  0  0  0  0  0  0  0  0  0  0  0
    6.2102   -0.2854    0.0000 Cl  0  0  0  0  0  0  0  0  0  0  0  0
    4.7812   -0.2854    0.0000 C   0  0  0  0  0  0  0  0  0  0  0  0
    3.3523   -1.1104    0.0000 C   0  0  0  0  0  0  0  0  0  0  0  0
    2.6378   -1.5229    0.0000 C   0  0  0  0  0  0  0  0  0  0  0  0
    1.9233   -1.1104    0.0000 C   0  0  0  0  0  0  0  0  0  0  0  0
    0.3739   -3.7192    0.0000 C   0  0  0  0  0  0  0  0  0  0  0  0
    0.1190   -4.5038    0.0000 C   0  0  0  0  0  0  0  0  0  0  0  0
    0.4161   -5.9016    0.0000 H   0  0  0  0  0  0  0  0  0  0  0  0
   -1.4528   -7.0292    0.0000 H   0  0  0  0  0  0  0  0  0  0  0  0
   -2.0470   -4.2338    0.0000 H   0  0  0  0  0  0  0  0  0  0  0  0
   -1.5371   -2.6646    0.0000 H   0  0  0  0  0  0  0  0  0  0  0  0
    1.4358   -2.7631    0.0000 H   0  0  0  0  0  0  0  0  0  0  0  0
   -0.1712   -0.6979    0.0000 H   0  0  0  0  0  0  0  0  0  0  0  0
    2.6378    0.9521    0.0000 H   0  0  0  0  0  0  0  0  0  0  0  0
    3.3523    1.3646    0.0000 H   0  0  0  0  0  0  0  0  0  0  0  0
    4.7812    2.1896    0.0000 H   0  0  0  0  0  0  0  0  0  0  0  0
    6.2102    1.3646    0.0000 H   0  0  0  0  0  0  0  0  0  0  0  0
    4.7812   -1.1104    0.0000 H   0  0  0  0  0  0  0  0  0  0  0  0
    4.0668   -1.5229    0.0000 H   0  0  0  0  0  0  0  0  0  0  0  0
    2.6378   -2.3479    0.0000 H   0  0  0  0  0  0  0  0  0  0  0  0
    1.1809   -3.5477    0.0000 H   0  0  0  0  0  0  0  0  0  0  0  0
    0.6710   -5.1169    0.0000 H   0  0  0  0  0  0  0  0  0  0  0  0
  1  2  2  0  0  0  0
  2  3  1  0  0  0  0
  3  4  1  0  0  0  0
  2  5  1  0  0  0  0
  5  6  4  0  0  0  0
  6  7  4  0  0  0  0
  7  8  4  0  0  0  0
  8  9  1  0  0  0  0
  9 10  2  0  0  0  0
  9 11  1  0  0  0  0
 11 12  1  0  0  0  0
 12 13  4  0  0  0  0
 13 14  4  0  0  0  0
 14 15  4  0  0  0  0
 15 16  4  0  0  0  0
 16 17  4  0  0  0  0
 17 18  1  0  0  0  0
 18 19  4  0  0  0  0
 19 20  4  0  0  0  0
 20 21  4  0  0  0  0
 21 22  4  0  0  0  0
 22 23  1  0  0  0  0
 22 24  4  0  0  0  0
 18 24  4  0  0  0  0
 17 25  4  0  0  0  0
 25 26  4  0  0  0  0
 26 27  4  0  0  0  0
 12 27  4  0  0  0  0
 15 27  4  0  0  0  0
  8 28  4  0  0  0  0
 28 29  4  0  0  0  0
  5 29  4  0  0  0  0
  3 30  1  0  0  0  0
  4 31  1  0  0  0  0
  6 32  1  0  0  0  0
  7 33  1  0  0  0  0
 11 34  1  0  0  0  0
 13 35  1  0  0  0  0
 16 36  1  0  0  0  0
 19 37  1  0  0  0  0
 20 38  1  0  0  0  0
 21 39  1  0  0  0  0
 24 40  1  0  0  0  0
 25 41  1  0  0  0  0
 26 42  1  0  0  0  0
 28 43  1  0  0  0  0
 29 44  1  0  0  0  0
M  END
>  <Molecule ChEMBL ID>
CHEMBL4212219

>  <Compound Key>
7q

>  <Active>
0

>  <StandardizerResult>
Dearomatize (ID: Dearomatize)
Clear Stereo (ID: ClearStereo)
Wedge Clean (ID: WedgeClean)
Mesomerize (ID: Mesomerize)
Tautomerize (ID: Tautomerize)
Aromatize (ID: Aromatize)
Add Explicit Hydrogens (ID: AddExplicitH)
Neutralize (ID: Neutralize)
Clean 2D (ID: Clean2D)


$$$$

  Mrv1551102232211292D          

 41 42  0  0  0  0            999 V2000
   -1.1528    1.6295    0.0000 N   0  0  0  0  0  0  0  0  0  0  0  0
   -0.6679    2.2969    0.0000 C   0  0  0  0  0  0  0  0  0  0  0  0
   -1.0034    3.0506    0.0000 C   0  0  0  0  0  0  0  0  0  0  0  0
   -0.5185    3.7180    0.0000 C   0  0  0  0  0  0  0  0  0  0  0  0
    0.3020    3.6318    0.0000 C   0  0  0  0  0  0  0  0  0  0  0  0
    0.6375    2.8781    0.0000 C   0  0  0  0  0  0  0  0  0  0  0  0
    1.4580    2.7919    0.0000 C   0  0  0  0  0  0  0  0  0  0  0  0
    2.0100    3.4050    0.0000 C   0  0  0  0  0  0  0  0  0  0  0  0
    2.7637    3.0694    0.0000 C   0  0  0  0  0  0  0  0  0  0  0  0
    3.4782    3.4819    0.0000 C   0  0  0  0  0  0  0  0  0  0  0  0
    3.4782    4.3069    0.0000 O   0  0  0  0  0  0  0  0  0  0  0  0
    4.1927    3.0694    0.0000 N   0  0  0  0  0  0  0  0  0  0  0  0
    4.9071    3.4819    0.0000 C   0  0  0  0  0  0  0  0  0  0  0  0
    5.6216    3.0694    0.0000 C   0  0  0  0  0  0  0  0  0  0  0  0
    6.3361    3.4819    0.0000 C   0  0  0  0  0  0  0  0  0  0  0  0
    7.0505    3.0694    0.0000 C   0  0  0  0  0  0  0  0  0  0  0  0
    7.7650    3.4819    0.0000 C   0  0  0  0  0  0  0  0  0  0  0  0
    7.7650    4.3069    0.0000 O   0  0  0  0  0  0  0  0  0  0  0  0
    8.4795    3.0694    0.0000 N   0  0  0  0  0  0  0  0  0  0  0  0
    9.1940    3.4819    0.0000 O   0  0  0  0  0  0  0  0  0  0  0  0
    2.6775    2.2489    0.0000 N   0  0  0  0  0  0  0  0  0  0  0  0
    1.8705    2.0774    0.0000 O   0  0  0  0  0  0  0  0  0  0  0  0
    0.1526    2.2107    0.0000 C   0  0  0  0  0  0  0  0  0  0  0  0
   -1.9733    1.7157    0.0000 H   0  0  0  0  0  0  0  0  0  0  0  0
   -0.8172    0.8758    0.0000 H   0  0  0  0  0  0  0  0  0  0  0  0
   -1.8239    3.1368    0.0000 H   0  0  0  0  0  0  0  0  0  0  0  0
   -0.8541    4.4717    0.0000 H   0  0  0  0  0  0  0  0  0  0  0  0
    0.7869    4.2992    0.0000 H   0  0  0  0  0  0  0  0  0  0  0  0
    1.8385    4.2119    0.0000 H   0  0  0  0  0  0  0  0  0  0  0  0
    4.1927    2.2444    0.0000 H   0  0  0  0  0  0  0  0  0  0  0  0
    5.2774    4.2192    0.0000 H   0  0  0  0  0  0  0  0  0  0  0  0
    4.5369    4.2192    0.0000 H   0  0  0  0  0  0  0  0  0  0  0  0
    5.2513    2.3322    0.0000 H   0  0  0  0  0  0  0  0  0  0  0  0
    5.9919    2.3322    0.0000 H   0  0  0  0  0  0  0  0  0  0  0  0
    6.7063    4.2192    0.0000 H   0  0  0  0  0  0  0  0  0  0  0  0
    5.9658    4.2192    0.0000 H   0  0  0  0  0  0  0  0  0  0  0  0
    6.6803    2.3322    0.0000 H   0  0  0  0  0  0  0  0  0  0  0  0
    7.4208    2.3322    0.0000 H   0  0  0  0  0  0  0  0  0  0  0  0
    8.4795    2.2444    0.0000 H   0  0  0  0  0  0  0  0  0  0  0  0
    9.9084    3.0694    0.0000 H   0  0  0  0  0  0  0  0  0  0  0  0
    0.4882    1.4570    0.0000 H   0  0  0  0  0  0  0  0  0  0  0  0
  1  2  1  0  0  0  0
  2  3  4  0  0  0  0
  3  4  4  0  0  0  0
  4  5  4  0  0  0  0
  5  6  4  0  0  0  0
  6  7  1  0  0  0  0
  7  8  4  0  0  0  0
  8  9  4  0  0  0  0
  9 10  1  0  0  0  0
 10 11  2  0  0  0  0
 10 12  1  0  0  0  0
 12 13  1  0  0  0  0
 13 14  1  0  0  0  0
 14 15  1  0  0  0  0
 15 16  1  0  0  0  0
 16 17  1  0  0  0  0
 17 18  2  0  0  0  0
 17 19  1  0  0  0  0
 19 20  1  0  0  0  0
  9 21  4  0  0  0  0
 21 22  4  0  0  0  0
  7 22  4  0  0  0  0
  6 23  4  0  0  0  0
  2 23  4  0  0  0  0
  1 24  1  0  0  0  0
  1 25  1  0  0  0  0
  3 26  1  0  0  0  0
  4 27  1  0  0  0  0
  5 28  1  0  0  0  0
  8 29  1  0  0  0  0
 12 30  1  0  0  0  0
 13 31  1  0  0  0  0
 13 32  1  0  0  0  0
 14 33  1  0  0  0  0
 14 34  1  0  0  0  0
 15 35  1  0  0  0  0
 15 36  1  0  0  0  0
 16 37  1  0  0  0  0
 16 38  1  0  0  0  0
 19 39  1  0  0  0  0
 20 40  1  0  0  0  0
 23 41  1  0  0  0  0
M  END
>  <Molecule ChEMBL ID>
CHEMBL446512

>  <Compound Key>
6

>  <Active>
0

>  <StandardizerResult>
Dearomatize (ID: Dearomatize)
Clear Stereo (ID: ClearStereo)
Wedge Clean (ID: WedgeClean)
Mesomerize (ID: Mesomerize)
Tautomerize (ID: Tautomerize)
Aromatize (ID: Aromatize)
Add Explicit Hydrogens (ID: AddExplicitH)
Neutralize (ID: Neutralize)
Clean 2D (ID: Clean2D)


$$$$

  Mrv1551102232211292D          

 54 57  0  0  0  0            999 V2000
    5.4954    5.6695    0.0000 C   0  0  0  0  0  0  0  0  0  0  0  0
    5.4954    4.8445    0.0000 C   0  0  0  0  0  0  0  0  0  0  0  0
    6.2098    4.4320    0.0000 C   0  0  0  0  0  0  0  0  0  0  0  0
    4.7809    4.4320    0.0000 O   0  0  0  0  0  0  0  0  0  0  0  0
    4.7809    3.6070    0.0000 C   0  0  0  0  0  0  0  0  0  0  0  0
    5.4954    3.1945    0.0000 C   0  0  0  0  0  0  0  0  0  0  0  0
    5.4954    2.3695    0.0000 C   0  0  0  0  0  0  0  0  0  0  0  0
    4.7809    1.9570    0.0000 C   0  0  0  0  0  0  0  0  0  0  0  0
    4.0664    2.3695    0.0000 C   0  0  0  0  0  0  0  0  0  0  0  0
    3.3520    1.9570    0.0000 C   0  0  0  0  0  0  0  0  0  0  0  0
    3.3520    1.1320    0.0000 C   0  0  0  0  0  0  0  0  0  0  0  0
    2.6375    0.7195    0.0000 C   0  0  0  0  0  0  0  0  0  0  0  0
    1.9230    1.1320    0.0000 C   0  0  0  0  0  0  0  0  0  0  0  0
    1.1384    0.8771    0.0000 C   0  0  0  0  0  0  0  0  0  0  0  0
    0.8835    0.0924    0.0000 N   0  0  0  0  0  0  0  0  0  0  0  0
    1.4355   -0.5206    0.0000 C   0  0  0  0  0  0  0  0  0  0  0  0
    2.2425   -0.3491    0.0000 O   0  0  0  0  0  0  0  0  0  0  0  0
    1.1805   -1.3053    0.0000 C   0  0  0  0  0  0  0  0  0  0  0  0
    1.7326   -1.9184    0.0000 C   0  0  0  0  0  0  0  0  0  0  0  0
    1.4776   -2.7030    0.0000 C   0  0  0  0  0  0  0  0  0  0  0  0
    0.6707   -2.8745    0.0000 C   0  0  0  0  0  0  0  0  0  0  0  0
    0.4157   -3.6591    0.0000 C   0  0  0  0  0  0  0  0  0  0  0  0
    0.9678   -4.2722    0.0000 O   0  0  0  0  0  0  0  0  0  0  0  0
   -0.3912   -3.8307    0.0000 N   0  0  0  0  0  0  0  0  0  0  0  0
   -0.6462   -4.6153    0.0000 O   0  0  0  0  0  0  0  0  0  0  0  0
    0.1186   -2.2614    0.0000 C   0  0  0  0  0  0  0  0  0  0  0  0
    0.3736   -1.4768    0.0000 C   0  0  0  0  0  0  0  0  0  0  0  0
    0.6535    1.5445    0.0000 N   0  0  0  0  0  0  0  0  0  0  0  0
    1.1384    2.2119    0.0000 N   0  0  0  0  0  0  0  0  0  0  0  0
    1.9230    1.9570    0.0000 C   0  0  0  0  0  0  0  0  0  0  0  0
    2.6375    2.3695    0.0000 C   0  0  0  0  0  0  0  0  0  0  0  0
    4.0664    3.1945    0.0000 C   0  0  0  0  0  0  0  0  0  0  0  0
    6.3204    5.6695    0.0000 H   0  0  0  0  0  0  0  0  0  0  0  0
    5.4954    6.4945    0.0000 H   0  0  0  0  0  0  0  0  0  0  0  0
    4.6704    5.6695    0.0000 H   0  0  0  0  0  0  0  0  0  0  0  0
    6.2098    5.2570    0.0000 H   0  0  0  0  0  0  0  0  0  0  0  0
    5.6265    3.8486    0.0000 H   0  0  0  0  0  0  0  0  0  0  0  0
    6.6223    3.7175    0.0000 H   0  0  0  0  0  0  0  0  0  0  0  0
    7.0067    4.6455    0.0000 H   0  0  0  0  0  0  0  0  0  0  0  0
    6.3163    3.1130    0.0000 H   0  0  0  0  0  0  0  0  0  0  0  0
    6.2098    1.9570    0.0000 H   0  0  0  0  0  0  0  0  0  0  0  0
    4.7809    1.1320    0.0000 H   0  0  0  0  0  0  0  0  0  0  0  0
    4.0664    0.7195    0.0000 H   0  0  0  0  0  0  0  0  0  0  0  0
    2.6375   -0.1055    0.0000 H   0  0  0  0  0  0  0  0  0  0  0  0
    0.0765   -0.0791    0.0000 H   0  0  0  0  0  0  0  0  0  0  0  0
    2.5395   -1.7468    0.0000 H   0  0  0  0  0  0  0  0  0  0  0  0
    2.0297   -3.3161    0.0000 H   0  0  0  0  0  0  0  0  0  0  0  0
   -0.9433   -3.2176    0.0000 H   0  0  0  0  0  0  0  0  0  0  0  0
   -1.4532   -4.7868    0.0000 H   0  0  0  0  0  0  0  0  0  0  0  0
   -0.6883   -2.4329    0.0000 H   0  0  0  0  0  0  0  0  0  0  0  0
   -0.1785   -0.8637    0.0000 H   0  0  0  0  0  0  0  0  0  0  0  0
   -0.1715    1.5445    0.0000 H   0  0  0  0  0  0  0  0  0  0  0  0
    2.6375    3.1945    0.0000 H   0  0  0  0  0  0  0  0  0  0  0  0
    3.3520    3.6070    0.0000 H   0  0  0  0  0  0  0  0  0  0  0  0
  1  2  1  0  0  0  0
  2  3  1  0  0  0  0
  2  4  1  0  0  0  0
  4  5  1  0  0  0  0
  5  6  4  0  0  0  0
  6  7  4  0  0  0  0
  7  8  4  0  0  0  0
  8  9  4  0  0  0  0
  9 10  1  0  0  0  0
 10 11  4  0  0  0  0
 11 12  4  0  0  0  0
 12 13  4  0  0  0  0
 13 14  4  0  0  0  0
 14 15  1  0  0  0  0
 15 16  1  0  0  0  0
 16 17  2  0  0  0  0
 16 18  1  0  0  0  0
 18 19  4  0  0  0  0
 19 20  4  0  0  0  0
 20 21  4  0  0  0  0
 21 22  1  0  0  0  0
 22 23  2  0  0  0  0
 22 24  1  0  0  0  0
 24 25  1  0  0  0  0
 21 26  4  0  0  0  0
 26 27  4  0  0  0  0
 18 27  4  0  0  0  0
 14 28  4  0  0  0  0
 28 29  4  0  0  0  0
 29 30  4  0  0  0  0
 13 30  4  0  0  0  0
 30 31  4  0  0  0  0
 10 31  4  0  0  0  0
  9 32  4  0  0  0  0
  5 32  4  0  0  0  0
  1 33  1  0  0  0  0
  1 34  1  0  0  0  0
  1 35  1  0  0  0  0
  2 36  1  0  0  0  0
  3 37  1  0  0  0  0
  3 38  1  0  0  0  0
  3 39  1  0  0  0  0
  6 40  1  0  0  0  0
  7 41  1  0  0  0  0
  8 42  1  0  0  0  0
 11 43  1  0  0  0  0
 12 44  1  0  0  0  0
 15 45  1  0  0  0  0
 19 46  1  0  0  0  0
 20 47  1  0  0  0  0
 24 48  1  0  0  0  0
 25 49  1  0  0  0  0
 26 50  1  0  0  0  0
 27 51  1  0  0  0  0
 28 52  1  0  0  0  0
 31 53  1  0  0  0  0
 32 54  1  0  0  0  0
M  END
>  <Molecule ChEMBL ID>
CHEMBL4208584

>  <Compound Key>
7p

>  <Active>
0

>  <StandardizerResult>
Dearomatize (ID: Dearomatize)
Clear Stereo (ID: ClearStereo)
Wedge Clean (ID: WedgeClean)
Mesomerize (ID: Mesomerize)
Tautomerize (ID: Tautomerize)
Aromatize (ID: Aromatize)
Add Explicit Hydrogens (ID: AddExplicitH)
Neutralize (ID: Neutralize)
Clean 2D (ID: Clean2D)


$$$$

  Mrv1551102232211292D          

 50 53  0  0  0  0            999 V2000
    0.0077   -2.4668    0.0000 C   0  0  0  0  0  0  0  0  0  0  0  0
    0.7222   -2.8793    0.0000 O   0  0  0  0  0  0  0  0  0  0  0  0
    1.4366   -2.4668    0.0000 C   0  0  0  0  0  0  0  0  0  0  0  0
    1.4366   -1.6418    0.0000 C   0  0  0  0  0  0  0  0  0  0  0  0
    2.1511   -1.2293    0.0000 C   0  0  0  0  0  0  0  0  0  0  0  0
    2.8656   -1.6418    0.0000 C   0  0  0  0  0  0  0  0  0  0  0  0
    3.5800   -1.2293    0.0000 N   0  0  0  0  0  0  0  0  0  0  0  0
    4.2945   -1.6418    0.0000 C   0  0  0  0  0  0  0  0  0  0  0  0
    5.0090   -1.2293    0.0000 C   0  0  0  0  0  0  0  0  0  0  0  0
    5.7235   -1.6418    0.0000 C   0  0  0  0  0  0  0  0  0  0  0  0
    6.4379   -1.2293    0.0000 Cl  0  0  0  0  0  0  0  0  0  0  0  0
    5.7235   -2.4668    0.0000 C   0  0  0  0  0  0  0  0  0  0  0  0
    5.0090   -2.8793    0.0000 C   0  0  0  0  0  0  0  0  0  0  0  0
    4.2945   -2.4668    0.0000 C   0  0  0  0  0  0  0  0  0  0  0  0
    3.5800   -2.8793    0.0000 C   0  0  0  0  0  0  0  0  0  0  0  0
    3.5800   -3.7043    0.0000 N   0  0  0  0  0  0  0  0  0  0  0  0
    4.2945   -4.1168    0.0000 C   0  0  0  0  0  0  0  0  0  0  0  0
    5.0090   -3.7043    0.0000 C   0  0  0  0  0  0  0  0  0  0  0  0
    5.7235   -4.1168    0.0000 C   0  0  0  0  0  0  0  0  0  0  0  0
    5.7235   -4.9418    0.0000 C   0  0  0  0  0  0  0  0  0  0  0  0
    6.4379   -5.3543    0.0000 C   0  0  0  0  0  0  0  0  0  0  0  0
    6.4379   -6.1793    0.0000 C   0  0  0  0  0  0  0  0  0  0  0  0
    7.1524   -6.5918    0.0000 C   0  0  0  0  0  0  0  0  0  0  0  0
    7.8669   -6.1793    0.0000 O   0  0  0  0  0  0  0  0  0  0  0  0
    7.1524   -7.4168    0.0000 N   0  0  0  0  0  0  0  0  0  0  0  0
    7.8669   -7.8293    0.0000 O   0  0  0  0  0  0  0  0  0  0  0  0
    5.0090   -5.3543    0.0000 C   0  0  0  0  0  0  0  0  0  0  0  0
    4.2945   -4.9418    0.0000 C   0  0  0  0  0  0  0  0  0  0  0  0
    2.8656   -2.4668    0.0000 C   0  0  0  0  0  0  0  0  0  0  0  0
    2.1511   -2.8793    0.0000 C   0  0  0  0  0  0  0  0  0  0  0  0
    0.4202   -1.7523    0.0000 H   0  0  0  0  0  0  0  0  0  0  0  0
   -0.7068   -2.0543    0.0000 H   0  0  0  0  0  0  0  0  0  0  0  0
   -0.4048   -3.1812    0.0000 H   0  0  0  0  0  0  0  0  0  0  0  0
    0.7222   -1.2293    0.0000 H   0  0  0  0  0  0  0  0  0  0  0  0
    2.1511   -0.4043    0.0000 H   0  0  0  0  0  0  0  0  0  0  0  0
    5.0090   -0.4043    0.0000 H   0  0  0  0  0  0  0  0  0  0  0  0
    6.4379   -2.8793    0.0000 H   0  0  0  0  0  0  0  0  0  0  0  0
    4.2945   -3.2918    0.0000 H   0  0  0  0  0  0  0  0  0  0  0  0
    2.8656   -4.1168    0.0000 H   0  0  0  0  0  0  0  0  0  0  0  0
    5.7235   -3.2918    0.0000 H   0  0  0  0  0  0  0  0  0  0  0  0
    6.5485   -4.1168    0.0000 H   0  0  0  0  0  0  0  0  0  0  0  0
    7.2615   -5.3063    0.0000 H   0  0  0  0  0  0  0  0  0  0  0  0
    6.8913   -4.6650    0.0000 H   0  0  0  0  0  0  0  0  0  0  0  0
    5.6143   -6.2272    0.0000 H   0  0  0  0  0  0  0  0  0  0  0  0
    5.9846   -6.8685    0.0000 H   0  0  0  0  0  0  0  0  0  0  0  0
    6.4379   -7.8293    0.0000 H   0  0  0  0  0  0  0  0  0  0  0  0
    7.8669   -8.6543    0.0000 H   0  0  0  0  0  0  0  0  0  0  0  0
    5.0090   -6.1793    0.0000 H   0  0  0  0  0  0  0  0  0  0  0  0
    3.5800   -5.3543    0.0000 H   0  0  0  0  0  0  0  0  0  0  0  0
    2.1511   -3.7043    0.0000 H   0  0  0  0  0  0  0  0  0  0  0  0
  1  2  1  0  0  0  0
  2  3  1  0  0  0  0
  3  4  4  0  0  0  0
  4  5  4  0  0  0  0
  5  6  4  0  0  0  0
  6  7  4  0  0  0  0
  7  8  4  0  0  0  0
  8  9  4  0  0  0  0
  9 10  4  0  0  0  0
 10 11  1  0  0  0  0
 10 12  4  0  0  0  0
 12 13  4  0  0  0  0
 13 14  4  0  0  0  0
  8 14  4  0  0  0  0
 14 15  4  0  0  0  0
 15 16  1  0  0  0  0
 16 17  1  0  0  0  0
 17 18  4  0  0  0  0
 18 19  4  0  0  0  0
 19 20  4  0  0  0  0
 20 21  1  0  0  0  0
 21 22  1  0  0  0  0
 22 23  1  0  0  0  0
 23 24  2  0  0  0  0
 23 25  1  0  0  0  0
 25 26  1  0  0  0  0
 20 27  4  0  0  0  0
 27 28  4  0  0  0  0
 17 28  4  0  0  0  0
 15 29  4  0  0  0  0
  6 29  4  0  0  0  0
 29 30  4  0  0  0  0
  3 30  4  0  0  0  0
  1 31  1  0  0  0  0
  1 32  1  0  0  0  0
  1 33  1  0  0  0  0
  4 34  1  0  0  0  0
  5 35  1  0  0  0  0
  9 36  1  0  0  0  0
 12 37  1  0  0  0  0
 13 38  1  0  0  0  0
 16 39  1  0  0  0  0
 18 40  1  0  0  0  0
 19 41  1  0  0  0  0
 21 42  1  0  0  0  0
 21 43  1  0  0  0  0
 22 44  1  0  0  0  0
 22 45  1  0  0  0  0
 25 46  1  0  0  0  0
 26 47  1  0  0  0  0
 27 48  1  0  0  0  0
 28 49  1  0  0  0  0
 30 50  1  0  0  0  0
M  END
>  <Molecule ChEMBL ID>
CHEMBL4248226

>  <Compound Key>
12b

>  <Active>
0

>  <StandardizerResult>
Dearomatize (ID: Dearomatize)
Clear Stereo (ID: ClearStereo)
Wedge Clean (ID: WedgeClean)
Mesomerize (ID: Mesomerize)
Tautomerize (ID: Tautomerize)
Aromatize (ID: Aromatize)
Add Explicit Hydrogens (ID: AddExplicitH)
Neutralize (ID: Neutralize)
Clean 2D (ID: Clean2D)


$$$$

  Mrv1551102232211292D          

 68 72  0  0  0  0            999 V2000
    7.6587   -2.1580    0.0000 O   0  0  0  0  0  0  0  0  0  0  0  0
    7.6587   -2.9830    0.0000 C   0  0  0  0  0  0  0  0  0  0  0  0
    6.9443   -3.3955    0.0000 C   0  0  0  0  0  0  0  0  0  0  0  0
    6.2298   -2.9830    0.0000 C   0  0  0  0  0  0  0  0  0  0  0  0
    5.5153   -3.3955    0.0000 C   0  0  0  0  0  0  0  0  0  0  0  0
    4.8009   -2.9830    0.0000 C   0  0  0  0  0  0  0  0  0  0  0  0
    4.0864   -3.3955    0.0000 C   0  0  0  0  0  0  0  0  0  0  0  0
    3.3719   -2.9830    0.0000 N   0  0  0  0  0  0  0  0  0  0  0  0
    2.6182   -3.3185    0.0000 C   0  0  0  0  0  0  0  0  0  0  0  0
    2.0662   -2.7054    0.0000 C   0  0  0  0  0  0  0  0  0  0  0  0
    1.2457   -2.7917    0.0000 C   0  0  0  0  0  0  0  0  0  0  0  0
    0.9102   -3.5453    0.0000 C   0  0  0  0  0  0  0  0  0  0  0  0
    0.0897   -3.6316    0.0000 C   0  0  0  0  0  0  0  0  0  0  0  0
   -0.3952   -2.9641    0.0000 C   0  0  0  0  0  0  0  0  0  0  0  0
   -1.2157   -3.0504    0.0000 N   0  0  0  0  0  0  0  0  0  0  0  0
   -1.7006   -2.3829    0.0000 C   0  0  0  0  0  0  0  0  0  0  0  0
   -1.3651   -1.6292    0.0000 N   0  0  0  0  0  0  0  0  0  0  0  0
   -0.5446   -1.5430    0.0000 C   0  0  0  0  0  0  0  0  0  0  0  0
   -0.2090   -0.7893    0.0000 N   0  0  0  0  0  0  0  0  0  0  0  0
   -0.6940   -0.1219    0.0000 C   0  0  0  0  0  0  0  0  0  0  0  0
   -1.5144   -0.2081    0.0000 C   0  0  0  0  0  0  0  0  0  0  0  0
   -1.9994    0.4593    0.0000 C   0  0  0  0  0  0  0  0  0  0  0  0
   -1.6638    1.2130    0.0000 C   0  0  0  0  0  0  0  0  0  0  0  0
   -2.1487    1.8804    0.0000 O   0  0  0  0  0  0  0  0  0  0  0  0
   -1.8132    2.6341    0.0000 C   0  0  0  0  0  0  0  0  0  0  0  0
   -2.2981    3.3015    0.0000 C   0  0  0  0  0  0  0  0  0  0  0  0
   -3.1186    3.2153    0.0000 C   0  0  0  0  0  0  0  0  0  0  0  0
   -3.6035    3.8827    0.0000 C   0  0  0  0  0  0  0  0  0  0  0  0
   -3.2679    4.6364    0.0000 C   0  0  0  0  0  0  0  0  0  0  0  0
   -2.4475    4.7226    0.0000 C   0  0  0  0  0  0  0  0  0  0  0  0
   -2.1119    5.4763    0.0000 F   0  0  0  0  0  0  0  0  0  0  0  0
   -1.9625    4.0552    0.0000 C   0  0  0  0  0  0  0  0  0  0  0  0
   -0.8433    1.2992    0.0000 C   0  0  0  0  0  0  0  0  0  0  0  0
   -0.5078    2.0529    0.0000 Cl  0  0  0  0  0  0  0  0  0  0  0  0
   -0.3584    0.6318    0.0000 C   0  0  0  0  0  0  0  0  0  0  0  0
   -0.0597   -2.2105    0.0000 C   0  0  0  0  0  0  0  0  0  0  0  0
    0.7608   -2.1242    0.0000 C   0  0  0  0  0  0  0  0  0  0  0  0
    2.4787   -1.9909    0.0000 N   0  0  0  0  0  0  0  0  0  0  0  0
    3.2857   -2.1625    0.0000 N   0  0  0  0  0  0  0  0  0  0  0  0
    8.3732   -3.3955    0.0000 N   0  0  0  0  0  0  0  0  0  0  0  0
    9.0877   -2.9830    0.0000 O   0  0  0  0  0  0  0  0  0  0  0  0
    6.5740   -4.1327    0.0000 H   0  0  0  0  0  0  0  0  0  0  0  0
    7.3145   -4.1327    0.0000 H   0  0  0  0  0  0  0  0  0  0  0  0
    6.6001   -2.2457    0.0000 H   0  0  0  0  0  0  0  0  0  0  0  0
    5.8595   -2.2457    0.0000 H   0  0  0  0  0  0  0  0  0  0  0  0
    5.1451   -4.1327    0.0000 H   0  0  0  0  0  0  0  0  0  0  0  0
    5.8856   -4.1327    0.0000 H   0  0  0  0  0  0  0  0  0  0  0  0
    5.1711   -2.2457    0.0000 H   0  0  0  0  0  0  0  0  0  0  0  0
    4.4306   -2.2457    0.0000 H   0  0  0  0  0  0  0  0  0  0  0  0
    3.7161   -4.1327    0.0000 H   0  0  0  0  0  0  0  0  0  0  0  0
    4.4566   -4.1327    0.0000 H   0  0  0  0  0  0  0  0  0  0  0  0
    2.4467   -4.1255    0.0000 H   0  0  0  0  0  0  0  0  0  0  0  0
    1.3951   -4.2128    0.0000 H   0  0  0  0  0  0  0  0  0  0  0  0
   -0.2459   -4.3852    0.0000 H   0  0  0  0  0  0  0  0  0  0  0  0
   -2.5211   -2.4692    0.0000 H   0  0  0  0  0  0  0  0  0  0  0  0
    0.6114   -0.7031    0.0000 H   0  0  0  0  0  0  0  0  0  0  0  0
   -1.8500   -0.9618    0.0000 H   0  0  0  0  0  0  0  0  0  0  0  0
   -2.8198    0.3731    0.0000 H   0  0  0  0  0  0  0  0  0  0  0  0
   -1.0413    2.3429    0.0000 H   0  0  0  0  0  0  0  0  0  0  0  0
   -1.1187    3.0794    0.0000 H   0  0  0  0  0  0  0  0  0  0  0  0
   -3.4541    2.4616    0.0000 H   0  0  0  0  0  0  0  0  0  0  0  0
   -4.4240    3.7965    0.0000 H   0  0  0  0  0  0  0  0  0  0  0  0
   -3.7529    5.3038    0.0000 H   0  0  0  0  0  0  0  0  0  0  0  0
   -1.1421    4.1414    0.0000 H   0  0  0  0  0  0  0  0  0  0  0  0
    0.4621    0.7180    0.0000 H   0  0  0  0  0  0  0  0  0  0  0  0
    1.0964   -1.3705    0.0000 H   0  0  0  0  0  0  0  0  0  0  0  0
    8.3732   -4.2205    0.0000 H   0  0  0  0  0  0  0  0  0  0  0  0
    9.8022   -3.3955    0.0000 H   0  0  0  0  0  0  0  0  0  0  0  0
  1  2  2  0  0  0  0
  2  3  1  0  0  0  0
  3  4  1  0  0  0  0
  4  5  1  0  0  0  0
  5  6  1  0  0  0  0
  6  7  1  0  0  0  0
  7  8  1  0  0  0  0
  8  9  4  0  0  0  0
  9 10  4  0  0  0  0
 10 11  1  0  0  0  0
 11 12  4  0  0  0  0
 12 13  4  0  0  0  0
 13 14  4  0  0  0  0
 14 15  4  0  0  0  0
 15 16  4  0  0  0  0
 16 17  4  0  0  0  0
 17 18  4  0  0  0  0
 18 19  1  0  0  0  0
 19 20  1  0  0  0  0
 20 21  4  0  0  0  0
 21 22  4  0  0  0  0
 22 23  4  0  0  0  0
 23 24  1  0  0  0  0
 24 25  1  0  0  0  0
 25 26  1  0  0  0  0
 26 27  4  0  0  0  0
 27 28  4  0  0  0  0
 28 29  4  0  0  0  0
 29 30  4  0  0  0  0
 30 31  1  0  0  0  0
 30 32  4  0  0  0  0
 26 32  4  0  0  0  0
 23 33  4  0  0  0  0
 33 34  1  0  0  0  0
 33 35  4  0  0  0  0
 20 35  4  0  0  0  0
 18 36  4  0  0  0  0
 14 36  4  0  0  0  0
 36 37  4  0  0  0  0
 11 37  4  0  0  0  0
 10 38  4  0  0  0  0
 38 39  4  0  0  0  0
  8 39  4  0  0  0  0
  2 40  1  0  0  0  0
 40 41  1  0  0  0  0
  3 42  1  0  0  0  0
  3 43  1  0  0  0  0
  4 44  1  0  0  0  0
  4 45  1  0  0  0  0
  5 46  1  0  0  0  0
  5 47  1  0  0  0  0
  6 48  1  0  0  0  0
  6 49  1  0  0  0  0
  7 50  1  0  0  0  0
  7 51  1  0  0  0  0
  9 52  1  0  0  0  0
 12 53  1  0  0  0  0
 13 54  1  0  0  0  0
 16 55  1  0  0  0  0
 19 56  1  0  0  0  0
 21 57  1  0  0  0  0
 22 58  1  0  0  0  0
 25 59  1  0  0  0  0
 25 60  1  0  0  0  0
 27 61  1  0  0  0  0
 28 62  1  0  0  0  0
 29 63  1  0  0  0  0
 32 64  1  0  0  0  0
 35 65  1  0  0  0  0
 37 66  1  0  0  0  0
 40 67  1  0  0  0  0
 41 68  1  0  0  0  0
M  END
>  <Molecule ChEMBL ID>
CHEMBL3964033

>  <Compound Key>
9e

>  <Active>
0

>  <StandardizerResult>
Dearomatize (ID: Dearomatize)
Clear Stereo (ID: ClearStereo)
Wedge Clean (ID: WedgeClean)
Mesomerize (ID: Mesomerize)
Tautomerize (ID: Tautomerize)
Aromatize (ID: Aromatize)
Add Explicit Hydrogens (ID: AddExplicitH)
Neutralize (ID: Neutralize)
Clean 2D (ID: Clean2D)


$$$$

  Mrv1551102232211292D          

 44 47  0  0  0  0            999 V2000
   -1.7499   -5.6315    0.0000 O   0  0  0  0  0  0  0  0  0  0  0  0
   -0.9429   -5.4600    0.0000 C   0  0  0  0  0  0  0  0  0  0  0  0
   -0.3909   -6.0731    0.0000 N   0  0  0  0  0  0  0  0  0  0  0  0
   -0.6458   -6.8577    0.0000 O   0  0  0  0  0  0  0  0  0  0  0  0
   -0.6880   -4.6754    0.0000 C   0  0  0  0  0  0  0  0  0  0  0  0
   -1.2400   -4.0623    0.0000 C   0  0  0  0  0  0  0  0  0  0  0  0
   -0.9851   -3.2777    0.0000 C   0  0  0  0  0  0  0  0  0  0  0  0
   -0.1781   -3.1061    0.0000 C   0  0  0  0  0  0  0  0  0  0  0  0
    0.0768   -2.3215    0.0000 C   0  0  0  0  0  0  0  0  0  0  0  0
   -0.4752   -1.7084    0.0000 O   0  0  0  0  0  0  0  0  0  0  0  0
    0.8838   -2.1500    0.0000 N   0  0  0  0  0  0  0  0  0  0  0  0
    1.1387   -1.3654    0.0000 C   0  0  0  0  0  0  0  0  0  0  0  0
    0.6538   -0.6979    0.0000 N   0  0  0  0  0  0  0  0  0  0  0  0
    1.1387   -0.0305    0.0000 N   0  0  0  0  0  0  0  0  0  0  0  0
    1.9233   -0.2854    0.0000 C   0  0  0  0  0  0  0  0  0  0  0  0
    2.6378    0.1271    0.0000 C   0  0  0  0  0  0  0  0  0  0  0  0
    3.3523   -0.2854    0.0000 C   0  0  0  0  0  0  0  0  0  0  0  0
    4.0668    0.1271    0.0000 C   0  0  0  0  0  0  0  0  0  0  0  0
    4.0668    0.9521    0.0000 C   0  0  0  0  0  0  0  0  0  0  0  0
    4.7812    1.3646    0.0000 C   0  0  0  0  0  0  0  0  0  0  0  0
    5.4957    0.9521    0.0000 C   0  0  0  0  0  0  0  0  0  0  0  0
    6.2102    1.3646    0.0000 Cl  0  0  0  0  0  0  0  0  0  0  0  0
    5.4957    0.1271    0.0000 C   0  0  0  0  0  0  0  0  0  0  0  0
    6.2102   -0.2854    0.0000 F   0  0  0  0  0  0  0  0  0  0  0  0
    4.7812   -0.2854    0.0000 C   0  0  0  0  0  0  0  0  0  0  0  0
    3.3523   -1.1104    0.0000 C   0  0  0  0  0  0  0  0  0  0  0  0
    2.6378   -1.5229    0.0000 C   0  0  0  0  0  0  0  0  0  0  0  0
    1.9233   -1.1104    0.0000 C   0  0  0  0  0  0  0  0  0  0  0  0
    0.3739   -3.7192    0.0000 C   0  0  0  0  0  0  0  0  0  0  0  0
    0.1190   -4.5038    0.0000 C   0  0  0  0  0  0  0  0  0  0  0  0
    0.4161   -5.9016    0.0000 H   0  0  0  0  0  0  0  0  0  0  0  0
   -1.4528   -7.0292    0.0000 H   0  0  0  0  0  0  0  0  0  0  0  0
   -2.0470   -4.2338    0.0000 H   0  0  0  0  0  0  0  0  0  0  0  0
   -1.5371   -2.6646    0.0000 H   0  0  0  0  0  0  0  0  0  0  0  0
    1.4358   -2.7631    0.0000 H   0  0  0  0  0  0  0  0  0  0  0  0
   -0.1712   -0.6979    0.0000 H   0  0  0  0  0  0  0  0  0  0  0  0
    2.6378    0.9521    0.0000 H   0  0  0  0  0  0  0  0  0  0  0  0
    3.3523    1.3646    0.0000 H   0  0  0  0  0  0  0  0  0  0  0  0
    4.7812    2.1896    0.0000 H   0  0  0  0  0  0  0  0  0  0  0  0
    4.7812   -1.1104    0.0000 H   0  0  0  0  0  0  0  0  0  0  0  0
    4.0668   -1.5229    0.0000 H   0  0  0  0  0  0  0  0  0  0  0  0
    2.6378   -2.3479    0.0000 H   0  0  0  0  0  0  0  0  0  0  0  0
    1.1809   -3.5477    0.0000 H   0  0  0  0  0  0  0  0  0  0  0  0
    0.6710   -5.1169    0.0000 H   0  0  0  0  0  0  0  0  0  0  0  0
  1  2  2  0  0  0  0
  2  3  1  0  0  0  0
  3  4  1  0  0  0  0
  2  5  1  0  0  0  0
  5  6  4  0  0  0  0
  6  7  4  0  0  0  0
  7  8  4  0  0  0  0
  8  9  1  0  0  0  0
  9 10  2  0  0  0  0
  9 11  1  0  0  0  0
 11 12  1  0  0  0  0
 12 13  4  0  0  0  0
 13 14  4  0  0  0  0
 14 15  4  0  0  0  0
 15 16  4  0  0  0  0
 16 17  4  0  0  0  0
 17 18  1  0  0  0  0
 18 19  4  0  0  0  0
 19 20  4  0  0  0  0
 20 21  4  0  0  0  0
 21 22  1  0  0  0  0
 21 23  4  0  0  0  0
 23 24  1  0  0  0  0
 23 25  4  0  0  0  0
 18 25  4  0  0  0  0
 17 26  4  0  0  0  0
 26 27  4  0  0  0  0
 27 28  4  0  0  0  0
 12 28  4  0  0  0  0
 15 28  4  0  0  0  0
  8 29  4  0  0  0  0
 29 30  4  0  0  0  0
  5 30  4  0  0  0  0
  3 31  1  0  0  0  0
  4 32  1  0  0  0  0
  6 33  1  0  0  0  0
  7 34  1  0  0  0  0
 11 35  1  0  0  0  0
 13 36  1  0  0  0  0
 16 37  1  0  0  0  0
 19 38  1  0  0  0  0
 20 39  1  0  0  0  0
 25 40  1  0  0  0  0
 26 41  1  0  0  0  0
 27 42  1  0  0  0  0
 29 43  1  0  0  0  0
 30 44  1  0  0  0  0
M  END
>  <Molecule ChEMBL ID>
CHEMBL4203741

>  <Compound Key>
7d

>  <Active>
0

>  <StandardizerResult>
Dearomatize (ID: Dearomatize)
Clear Stereo (ID: ClearStereo)
Wedge Clean (ID: WedgeClean)
Mesomerize (ID: Mesomerize)
Tautomerize (ID: Tautomerize)
Aromatize (ID: Aromatize)
Add Explicit Hydrogens (ID: AddExplicitH)
Neutralize (ID: Neutralize)
Clean 2D (ID: Clean2D)


$$$$

  Mrv1551102232211292D          

 46 49  0  0  0  0            999 V2000
   -2.1302    4.5285    0.0000 O   0  0  0  0  0  0  0  0  0  0  0  0
   -1.4158    4.9410    0.0000 C   0  0  0  0  0  0  0  0  0  0  0  0
   -0.7013    4.5285    0.0000 C   0  0  0  0  0  0  0  0  0  0  0  0
   -0.7013    3.7035    0.0000 C   0  0  0  0  0  0  0  0  0  0  0  0
    0.0132    3.2910    0.0000 C   0  0  0  0  0  0  0  0  0  0  0  0
    0.7276    3.7035    0.0000 C   0  0  0  0  0  0  0  0  0  0  0  0
    1.4421    3.2910    0.0000 C   0  0  0  0  0  0  0  0  0  0  0  0
    1.4421    2.4660    0.0000 C   0  0  0  0  0  0  0  0  0  0  0  0
    2.1566    2.0535    0.0000 N   0  0  0  0  0  0  0  0  0  0  0  0
    2.1566    1.2285    0.0000 C   0  0  0  0  0  0  0  0  0  0  0  0
    2.8711    0.8160    0.0000 C   0  0  0  0  0  0  0  0  0  0  0  0
    3.5855    1.2285    0.0000 C   0  0  0  0  0  0  0  0  0  0  0  0
    4.3000    0.8160    0.0000 C   0  0  0  0  0  0  0  0  0  0  0  0
    4.3000   -0.0090    0.0000 C   0  0  0  0  0  0  0  0  0  0  0  0
    3.5855   -0.4215    0.0000 C   0  0  0  0  0  0  0  0  0  0  0  0
    2.8711   -0.0090    0.0000 C   0  0  0  0  0  0  0  0  0  0  0  0
    2.1566   -0.4215    0.0000 N   0  0  0  0  0  0  0  0  0  0  0  0
    1.4421   -0.0090    0.0000 C   0  0  0  0  0  0  0  0  0  0  0  0
    0.7276   -0.4215    0.0000 C   0  0  0  0  0  0  0  0  0  0  0  0
    0.0132   -0.0090    0.0000 C   0  0  0  0  0  0  0  0  0  0  0  0
    0.0132    0.8160    0.0000 C   0  0  0  0  0  0  0  0  0  0  0  0
    0.7276    1.2285    0.0000 C   0  0  0  0  0  0  0  0  0  0  0  0
    1.4421    0.8160    0.0000 C   0  0  0  0  0  0  0  0  0  0  0  0
    0.7276    2.0535    0.0000 C   0  0  0  0  0  0  0  0  0  0  0  0
    0.0132    2.4660    0.0000 C   0  0  0  0  0  0  0  0  0  0  0  0
   -1.4158    5.7660    0.0000 N   0  0  0  0  0  0  0  0  0  0  0  0
   -2.1302    6.1785    0.0000 O   0  0  0  0  0  0  0  0  0  0  0  0
    0.1223    4.5765    0.0000 H   0  0  0  0  0  0  0  0  0  0  0  0
   -0.2480    5.2178    0.0000 H   0  0  0  0  0  0  0  0  0  0  0  0
   -1.5249    3.6556    0.0000 H   0  0  0  0  0  0  0  0  0  0  0  0
   -1.1546    3.0143    0.0000 H   0  0  0  0  0  0  0  0  0  0  0  0
    0.7276    4.5285    0.0000 H   0  0  0  0  0  0  0  0  0  0  0  0
    2.1566    3.7035    0.0000 H   0  0  0  0  0  0  0  0  0  0  0  0
    2.8711    2.4660    0.0000 H   0  0  0  0  0  0  0  0  0  0  0  0
    3.5855    2.0535    0.0000 H   0  0  0  0  0  0  0  0  0  0  0  0
    5.0145    1.2285    0.0000 H   0  0  0  0  0  0  0  0  0  0  0  0
    5.0145   -0.4215    0.0000 H   0  0  0  0  0  0  0  0  0  0  0  0
    3.5855   -1.2465    0.0000 H   0  0  0  0  0  0  0  0  0  0  0  0
    0.7276   -1.2465    0.0000 H   0  0  0  0  0  0  0  0  0  0  0  0
   -0.7013   -0.4215    0.0000 H   0  0  0  0  0  0  0  0  0  0  0  0
   -0.7013    1.2285    0.0000 H   0  0  0  0  0  0  0  0  0  0  0  0
    1.4421    1.6410    0.0000 H   0  0  0  0  0  0  0  0  0  0  0  0
    0.0132    1.6410    0.0000 H   0  0  0  0  0  0  0  0  0  0  0  0
   -0.8118    2.4660    0.0000 H   0  0  0  0  0  0  0  0  0  0  0  0
   -0.7013    6.1785    0.0000 H   0  0  0  0  0  0  0  0  0  0  0  0
   -2.1302    7.0035    0.0000 H   0  0  0  0  0  0  0  0  0  0  0  0
  1  2  2  0  0  0  0
  2  3  1  0  0  0  0
  3  4  1  0  0  0  0
  4  5  1  0  0  0  0
  5  6  4  0  0  0  0
  6  7  4  0  0  0  0
  7  8  4  0  0  0  0
  8  9  1  0  0  0  0
  9 10  1  0  0  0  0
 10 11  4  0  0  0  0
 11 12  4  0  0  0  0
 12 13  4  0  0  0  0
 13 14  4  0  0  0  0
 14 15  4  0  0  0  0
 15 16  4  0  0  0  0
 11 16  4  0  0  0  0
 16 17  4  0  0  0  0
 17 18  4  0  0  0  0
 18 19  4  0  0  0  0
 19 20  4  0  0  0  0
 20 21  4  0  0  0  0
 21 22  4  0  0  0  0
 22 23  4  0  0  0  0
 10 23  4  0  0  0  0
 18 23  4  0  0  0  0
  8 24  4  0  0  0  0
 24 25  4  0  0  0  0
  5 25  4  0  0  0  0
  2 26  1  0  0  0  0
 26 27  1  0  0  0  0
  3 28  1  0  0  0  0
  3 29  1  0  0  0  0
  4 30  1  0  0  0  0
  4 31  1  0  0  0  0
  6 32  1  0  0  0  0
  7 33  1  0  0  0  0
  9 34  1  0  0  0  0
 12 35  1  0  0  0  0
 13 36  1  0  0  0  0
 14 37  1  0  0  0  0
 15 38  1  0  0  0  0
 19 39  1  0  0  0  0
 20 40  1  0  0  0  0
 21 41  1  0  0  0  0
 22 42  1  0  0  0  0
 24 43  1  0  0  0  0
 25 44  1  0  0  0  0
 26 45  1  0  0  0  0
 27 46  1  0  0  0  0
M  END
>  <Molecule ChEMBL ID>
CHEMBL4248676

>  <Compound Key>
12a

>  <Active>
0

>  <StandardizerResult>
Dearomatize (ID: Dearomatize)
Clear Stereo (ID: ClearStereo)
Wedge Clean (ID: WedgeClean)
Mesomerize (ID: Mesomerize)
Tautomerize (ID: Tautomerize)
Aromatize (ID: Aromatize)
Add Explicit Hydrogens (ID: AddExplicitH)
Neutralize (ID: Neutralize)
Clean 2D (ID: Clean2D)


$$$$

  Mrv1551102232211292D          

 47 50  0  0  0  0            999 V2000
   -1.7499   -5.6315    0.0000 O   0  0  0  0  0  0  0  0  0  0  0  0
   -0.9429   -5.4600    0.0000 C   0  0  0  0  0  0  0  0  0  0  0  0
   -0.3909   -6.0731    0.0000 N   0  0  0  0  0  0  0  0  0  0  0  0
   -0.6458   -6.8577    0.0000 O   0  0  0  0  0  0  0  0  0  0  0  0
   -0.6880   -4.6754    0.0000 C   0  0  0  0  0  0  0  0  0  0  0  0
   -1.2400   -4.0623    0.0000 C   0  0  0  0  0  0  0  0  0  0  0  0
   -0.9851   -3.2777    0.0000 C   0  0  0  0  0  0  0  0  0  0  0  0
   -0.1781   -3.1061    0.0000 C   0  0  0  0  0  0  0  0  0  0  0  0
    0.0768   -2.3215    0.0000 C   0  0  0  0  0  0  0  0  0  0  0  0
   -0.4752   -1.7084    0.0000 O   0  0  0  0  0  0  0  0  0  0  0  0
    0.8838   -2.1500    0.0000 N   0  0  0  0  0  0  0  0  0  0  0  0
    1.1387   -1.3654    0.0000 C   0  0  0  0  0  0  0  0  0  0  0  0
    0.6538   -0.6979    0.0000 N   0  0  0  0  0  0  0  0  0  0  0  0
    1.1387   -0.0305    0.0000 N   0  0  0  0  0  0  0  0  0  0  0  0
    1.9233   -0.2854    0.0000 C   0  0  0  0  0  0  0  0  0  0  0  0
    2.6378    0.1271    0.0000 C   0  0  0  0  0  0  0  0  0  0  0  0
    3.3523   -0.2854    0.0000 C   0  0  0  0  0  0  0  0  0  0  0  0
    4.0668    0.1271    0.0000 C   0  0  0  0  0  0  0  0  0  0  0  0
    4.0668    0.9521    0.0000 C   0  0  0  0  0  0  0  0  0  0  0  0
    4.7812    1.3646    0.0000 C   0  0  0  0  0  0  0  0  0  0  0  0
    5.4957    0.9521    0.0000 C   0  0  0  0  0  0  0  0  0  0  0  0
    6.2102    1.3646    0.0000 C   0  0  0  0  0  0  0  0  0  0  0  0
    6.9246    1.7771    0.0000 F   0  0  0  0  0  0  0  0  0  0  0  0
    6.6227    0.6501    0.0000 F   0  0  0  0  0  0  0  0  0  0  0  0
    5.7977    2.0791    0.0000 F   0  0  0  0  0  0  0  0  0  0  0  0
    5.4957    0.1271    0.0000 C   0  0  0  0  0  0  0  0  0  0  0  0
    4.7812   -0.2854    0.0000 C   0  0  0  0  0  0  0  0  0  0  0  0
    3.3523   -1.1104    0.0000 C   0  0  0  0  0  0  0  0  0  0  0  0
    2.6378   -1.5229    0.0000 C   0  0  0  0  0  0  0  0  0  0  0  0
    1.9233   -1.1104    0.0000 C   0  0  0  0  0  0  0  0  0  0  0  0
    0.3739   -3.7192    0.0000 C   0  0  0  0  0  0  0  0  0  0  0  0
    0.1190   -4.5038    0.0000 C   0  0  0  0  0  0  0  0  0  0  0  0
    0.4161   -5.9016    0.0000 H   0  0  0  0  0  0  0  0  0  0  0  0
   -1.4528   -7.0292    0.0000 H   0  0  0  0  0  0  0  0  0  0  0  0
   -2.0470   -4.2338    0.0000 H   0  0  0  0  0  0  0  0  0  0  0  0
   -1.5371   -2.6646    0.0000 H   0  0  0  0  0  0  0  0  0  0  0  0
    1.4358   -2.7631    0.0000 H   0  0  0  0  0  0  0  0  0  0  0  0
   -0.1712   -0.6979    0.0000 H   0  0  0  0  0  0  0  0  0  0  0  0
    2.6378    0.9521    0.0000 H   0  0  0  0  0  0  0  0  0  0  0  0
    3.3523    1.3646    0.0000 H   0  0  0  0  0  0  0  0  0  0  0  0
    4.7812    2.1896    0.0000 H   0  0  0  0  0  0  0  0  0  0  0  0
    6.2102   -0.2854    0.0000 H   0  0  0  0  0  0  0  0  0  0  0  0
    4.7812   -1.1104    0.0000 H   0  0  0  0  0  0  0  0  0  0  0  0
    4.0668   -1.5229    0.0000 H   0  0  0  0  0  0  0  0  0  0  0  0
    2.6378   -2.3479    0.0000 H   0  0  0  0  0  0  0  0  0  0  0  0
    1.1809   -3.5477    0.0000 H   0  0  0  0  0  0  0  0  0  0  0  0
    0.6710   -5.1169    0.0000 H   0  0  0  0  0  0  0  0  0  0  0  0
  1  2  2  0  0  0  0
  2  3  1  0  0  0  0
  3  4  1  0  0  0  0
  2  5  1  0  0  0  0
  5  6  4  0  0  0  0
  6  7  4  0  0  0  0
  7  8  4  0  0  0  0
  8  9  1  0  0  0  0
  9 10  2  0  0  0  0
  9 11  1  0  0  0  0
 11 12  1  0  0  0  0
 12 13  4  0  0  0  0
 13 14  4  0  0  0  0
 14 15  4  0  0  0  0
 15 16  4  0  0  0  0
 16 17  4  0  0  0  0
 17 18  1  0  0  0  0
 18 19  4  0  0  0  0
 19 20  4  0  0  0  0
 20 21  4  0  0  0  0
 21 22  1  0  0  0  0
 22 23  1  0  0  0  0
 22 24  1  0  0  0  0
 22 25  1  0  0  0  0
 21 26  4  0  0  0  0
 26 27  4  0  0  0  0
 18 27  4  0  0  0  0
 17 28  4  0  0  0  0
 28 29  4  0  0  0  0
 29 30  4  0  0  0  0
 12 30  4  0  0  0  0
 15 30  4  0  0  0  0
  8 31  4  0  0  0  0
 31 32  4  0  0  0  0
  5 32  4  0  0  0  0
  3 33  1  0  0  0  0
  4 34  1  0  0  0  0
  6 35  1  0  0  0  0
  7 36  1  0  0  0  0
 11 37  1  0  0  0  0
 13 38  1  0  0  0  0
 16 39  1  0  0  0  0
 19 40  1  0  0  0  0
 20 41  1  0  0  0  0
 26 42  1  0  0  0  0
 27 43  1  0  0  0  0
 28 44  1  0  0  0  0
 29 45  1  0  0  0  0
 31 46  1  0  0  0  0
 32 47  1  0  0  0  0
M  END
>  <Molecule ChEMBL ID>
CHEMBL4205375

>  <Compound Key>
7c

>  <Active>
0

>  <StandardizerResult>
Dearomatize (ID: Dearomatize)
Clear Stereo (ID: ClearStereo)
Wedge Clean (ID: WedgeClean)
Mesomerize (ID: Mesomerize)
Tautomerize (ID: Tautomerize)
Aromatize (ID: Aromatize)
Add Explicit Hydrogens (ID: AddExplicitH)
Neutralize (ID: Neutralize)
Clean 2D (ID: Clean2D)


$$$$

  Mrv1551102232211292D          

 67 71  0  0  0  0            999 V2000
    7.8375   -3.6528    0.0000 O   0  0  0  0  0  0  0  0  0  0  0  0
    8.5520   -4.0653    0.0000 C   0  0  0  0  0  0  0  0  0  0  0  0
    8.5520   -4.8903    0.0000 C   0  0  0  0  0  0  0  0  0  0  0  0
    7.8375   -5.3028    0.0000 C   0  0  0  0  0  0  0  0  0  0  0  0
    7.8375   -6.1278    0.0000 C   0  0  0  0  0  0  0  0  0  0  0  0
    7.1230   -6.5403    0.0000 C   0  0  0  0  0  0  0  0  0  0  0  0
    6.4086   -6.1278    0.0000 C   0  0  0  0  0  0  0  0  0  0  0  0
    5.6941   -6.5403    0.0000 C   0  0  0  0  0  0  0  0  0  0  0  0
    4.9796   -6.1278    0.0000 N   0  0  0  0  0  0  0  0  0  0  0  0
    4.2651   -6.5403    0.0000 C   0  0  0  0  0  0  0  0  0  0  0  0
    3.5507   -6.1278    0.0000 C   0  0  0  0  0  0  0  0  0  0  0  0
    3.5507   -5.3028    0.0000 N   0  0  0  0  0  0  0  0  0  0  0  0
    2.8362   -4.8903    0.0000 C   0  0  0  0  0  0  0  0  0  0  0  0
    2.1217   -5.3028    0.0000 O   0  0  0  0  0  0  0  0  0  0  0  0
    2.8362   -4.0653    0.0000 C   0  0  0  0  0  0  0  0  0  0  0  0
    2.1217   -3.6528    0.0000 C   0  0  0  0  0  0  0  0  0  0  0  0
    2.1217   -2.8278    0.0000 C   0  0  0  0  0  0  0  0  0  0  0  0
    1.4073   -2.4153    0.0000 C   0  0  0  0  0  0  0  0  0  0  0  0
    1.4073   -1.5903    0.0000 C   0  0  0  0  0  0  0  0  0  0  0  0
    0.6928   -1.1778    0.0000 N   0  0  0  0  0  0  0  0  0  0  0  0
    0.6928   -0.3528    0.0000 N   0  0  0  0  0  0  0  0  0  0  0  0
    1.4073    0.0597    0.0000 C   0  0  0  0  0  0  0  0  0  0  0  0
    1.4073    0.8847    0.0000 O   0  0  0  0  0  0  0  0  0  0  0  0
    2.1217   -0.3528    0.0000 C   0  0  0  0  0  0  0  0  0  0  0  0
    2.8362    0.0597    0.0000 C   0  0  0  0  0  0  0  0  0  0  0  0
    3.5507   -0.3528    0.0000 C   0  0  0  0  0  0  0  0  0  0  0  0
    3.5507   -1.1778    0.0000 C   0  0  0  0  0  0  0  0  0  0  0  0
    2.8362   -1.5903    0.0000 C   0  0  0  0  0  0  0  0  0  0  0  0
    2.1217   -1.1778    0.0000 C   0  0  0  0  0  0  0  0  0  0  0  0
    2.8362   -2.4153    0.0000 C   0  0  0  0  0  0  0  0  0  0  0  0
    3.5507   -2.8278    0.0000 C   0  0  0  0  0  0  0  0  0  0  0  0
    3.5507   -3.6528    0.0000 C   0  0  0  0  0  0  0  0  0  0  0  0
    4.2651   -4.0653    0.0000 F   0  0  0  0  0  0  0  0  0  0  0  0
    4.2651   -4.8903    0.0000 C   0  0  0  0  0  0  0  0  0  0  0  0
    4.9796   -5.3028    0.0000 C   0  0  0  0  0  0  0  0  0  0  0  0
    6.4086   -5.3028    0.0000 C   0  0  0  0  0  0  0  0  0  0  0  0
    7.1230   -4.8903    0.0000 C   0  0  0  0  0  0  0  0  0  0  0  0
    9.2664   -3.6528    0.0000 N   0  0  0  0  0  0  0  0  0  0  0  0
    9.9809   -4.0653    0.0000 O   0  0  0  0  0  0  0  0  0  0  0  0
    9.0053   -5.5795    0.0000 H   0  0  0  0  0  0  0  0  0  0  0  0
    9.3756   -4.9382    0.0000 H   0  0  0  0  0  0  0  0  0  0  0  0
    8.5520   -6.5403    0.0000 H   0  0  0  0  0  0  0  0  0  0  0  0
    7.1230   -7.3653    0.0000 H   0  0  0  0  0  0  0  0  0  0  0  0
    5.3238   -7.2775    0.0000 H   0  0  0  0  0  0  0  0  0  0  0  0
    6.0643   -7.2775    0.0000 H   0  0  0  0  0  0  0  0  0  0  0  0
    3.8949   -7.2775    0.0000 H   0  0  0  0  0  0  0  0  0  0  0  0
    4.6354   -7.2775    0.0000 H   0  0  0  0  0  0  0  0  0  0  0  0
    2.7271   -6.1757    0.0000 H   0  0  0  0  0  0  0  0  0  0  0  0
    3.0973   -6.8170    0.0000 H   0  0  0  0  0  0  0  0  0  0  0  0
    1.4073   -4.0653    0.0000 H   0  0  0  0  0  0  0  0  0  0  0  0
    0.5837   -2.4632    0.0000 H   0  0  0  0  0  0  0  0  0  0  0  0
    0.9539   -3.1045    0.0000 H   0  0  0  0  0  0  0  0  0  0  0  0
   -0.0217    0.0597    0.0000 H   0  0  0  0  0  0  0  0  0  0  0  0
    2.8362    0.8847    0.0000 H   0  0  0  0  0  0  0  0  0  0  0  0
    4.2651    0.0597    0.0000 H   0  0  0  0  0  0  0  0  0  0  0  0
    4.2651   -1.5903    0.0000 H   0  0  0  0  0  0  0  0  0  0  0  0
    2.1217   -2.0028    0.0000 H   0  0  0  0  0  0  0  0  0  0  0  0
    3.5507   -2.0028    0.0000 H   0  0  0  0  0  0  0  0  0  0  0  0
    4.3757   -2.8278    0.0000 H   0  0  0  0  0  0  0  0  0  0  0  0
    4.9796   -4.4778    0.0000 H   0  0  0  0  0  0  0  0  0  0  0  0
    4.2651   -5.7153    0.0000 H   0  0  0  0  0  0  0  0  0  0  0  0
    5.7549   -5.5849    0.0000 H   0  0  0  0  0  0  0  0  0  0  0  0
    5.7549   -5.0206    0.0000 H   0  0  0  0  0  0  0  0  0  0  0  0
    6.3607   -4.4791    0.0000 H   0  0  0  0  0  0  0  0  0  0  0  0
    7.5251   -4.1699    0.0000 H   0  0  0  0  0  0  0  0  0  0  0  0
    9.2664   -2.8278    0.0000 H   0  0  0  0  0  0  0  0  0  0  0  0
    9.9809   -4.8903    0.0000 H   0  0  0  0  0  0  0  0  0  0  0  0
  1  2  2  0  0  0  0
  2  3  1  0  0  0  0
  3  4  1  0  0  0  0
  4  5  4  0  0  0  0
  5  6  4  0  0  0  0
  6  7  4  0  0  0  0
  7  8  1  0  0  0  0
  8  9  1  0  0  0  0
  9 10  1  0  0  0  0
 10 11  1  0  0  0  0
 11 12  1  0  0  0  0
 12 13  1  0  0  0  0
 13 14  2  0  0  0  0
 13 15  1  0  0  0  0
 15 16  4  0  0  0  0
 16 17  4  0  0  0  0
 17 18  1  0  0  0  0
 18 19  1  0  0  0  0
 19 20  2  0  0  0  0
 20 21  1  0  0  0  0
 21 22  1  0  0  0  0
 22 23  2  0  0  0  0
 22 24  1  0  0  0  0
 24 25  4  0  0  0  0
 25 26  4  0  0  0  0
 26 27  4  0  0  0  0
 27 28  4  0  0  0  0
 28 29  4  0  0  0  0
 19 29  1  0  0  0  0
 24 29  4  0  0  0  0
 17 30  4  0  0  0  0
 30 31  4  0  0  0  0
 31 32  4  0  0  0  0
 15 32  4  0  0  0  0
 32 33  1  0  0  0  0
 12 34  1  0  0  0  0
 34 35  1  0  0  0  0
  9 35  1  0  0  0  0
  7 36  4  0  0  0  0
 36 37  4  0  0  0  0
  4 37  4  0  0  0  0
  2 38  1  0  0  0  0
 38 39  1  0  0  0  0
  3 40  1  0  0  0  0
  3 41  1  0  0  0  0
  5 42  1  0  0  0  0
  6 43  1  0  0  0  0
  8 44  1  0  0  0  0
  8 45  1  0  0  0  0
 10 46  1  0  0  0  0
 10 47  1  0  0  0  0
 11 48  1  0  0  0  0
 11 49  1  0  0  0  0
 16 50  1  0  0  0  0
 18 51  1  0  0  0  0
 18 52  1  0  0  0  0
 21 53  1  0  0  0  0
 25 54  1  0  0  0  0
 26 55  1  0  0  0  0
 27 56  1  0  0  0  0
 28 57  1  0  0  0  0
 30 58  1  0  0  0  0
 31 59  1  0  0  0  0
 34 60  1  0  0  0  0
 34 61  1  0  0  0  0
 35 62  1  0  0  0  0
 35 63  1  0  0  0  0
 36 64  1  0  0  0  0
 37 65  1  0  0  0  0
 38 66  1  0  0  0  0
 39 67  1  0  0  0  0
M  END
>  <Molecule ChEMBL ID>
CHEMBL4075511

>  <Compound Key>
P3

>  <Active>
0

>  <StandardizerResult>
Dearomatize (ID: Dearomatize)
Clear Stereo (ID: ClearStereo)
Wedge Clean (ID: WedgeClean)
Mesomerize (ID: Mesomerize)
Tautomerize (ID: Tautomerize)
Aromatize (ID: Aromatize)
Add Explicit Hydrogens (ID: AddExplicitH)
Neutralize (ID: Neutralize)
Clean 2D (ID: Clean2D)


$$$$

  Mrv1551102232211292D          

 48 51  0  0  0  0            999 V2000
    5.4957    4.8229    0.0000 C   0  0  0  0  0  0  0  0  0  0  0  0
    4.7812    4.4104    0.0000 O   0  0  0  0  0  0  0  0  0  0  0  0
    4.7812    3.5854    0.0000 C   0  0  0  0  0  0  0  0  0  0  0  0
    5.4957    3.1729    0.0000 C   0  0  0  0  0  0  0  0  0  0  0  0
    5.4957    2.3479    0.0000 C   0  0  0  0  0  0  0  0  0  0  0  0
    4.7812    1.9354    0.0000 C   0  0  0  0  0  0  0  0  0  0  0  0
    4.0668    2.3479    0.0000 C   0  0  0  0  0  0  0  0  0  0  0  0
    3.3523    1.9354    0.0000 C   0  0  0  0  0  0  0  0  0  0  0  0
    3.3523    1.1104    0.0000 C   0  0  0  0  0  0  0  0  0  0  0  0
    2.6378    0.6979    0.0000 C   0  0  0  0  0  0  0  0  0  0  0  0
    1.9233    1.1104    0.0000 C   0  0  0  0  0  0  0  0  0  0  0  0
    1.1387    0.8555    0.0000 C   0  0  0  0  0  0  0  0  0  0  0  0
    0.8838    0.0709    0.0000 N   0  0  0  0  0  0  0  0  0  0  0  0
    1.4358   -0.5422    0.0000 C   0  0  0  0  0  0  0  0  0  0  0  0
    2.2428   -0.3707    0.0000 O   0  0  0  0  0  0  0  0  0  0  0  0
    1.1809   -1.3269    0.0000 C   0  0  0  0  0  0  0  0  0  0  0  0
    1.7329   -1.9400    0.0000 C   0  0  0  0  0  0  0  0  0  0  0  0
    1.4780   -2.7246    0.0000 C   0  0  0  0  0  0  0  0  0  0  0  0
    0.6710   -2.8961    0.0000 C   0  0  0  0  0  0  0  0  0  0  0  0
    0.4161   -3.6807    0.0000 C   0  0  0  0  0  0  0  0  0  0  0  0
    0.9681   -4.2938    0.0000 O   0  0  0  0  0  0  0  0  0  0  0  0
   -0.3909   -3.8522    0.0000 N   0  0  0  0  0  0  0  0  0  0  0  0
   -0.6459   -4.6369    0.0000 O   0  0  0  0  0  0  0  0  0  0  0  0
    0.1190   -2.2830    0.0000 C   0  0  0  0  0  0  0  0  0  0  0  0
    0.3739   -1.4984    0.0000 C   0  0  0  0  0  0  0  0  0  0  0  0
    0.6538    1.5229    0.0000 N   0  0  0  0  0  0  0  0  0  0  0  0
    1.1387    2.1904    0.0000 N   0  0  0  0  0  0  0  0  0  0  0  0
    1.9233    1.9354    0.0000 C   0  0  0  0  0  0  0  0  0  0  0  0
    2.6378    2.3479    0.0000 C   0  0  0  0  0  0  0  0  0  0  0  0
    4.0668    3.1729    0.0000 C   0  0  0  0  0  0  0  0  0  0  0  0
    5.9082    4.1085    0.0000 H   0  0  0  0  0  0  0  0  0  0  0  0
    6.2102    5.2354    0.0000 H   0  0  0  0  0  0  0  0  0  0  0  0
    5.0832    5.5374    0.0000 H   0  0  0  0  0  0  0  0  0  0  0  0
    6.2102    3.5854    0.0000 H   0  0  0  0  0  0  0  0  0  0  0  0
    6.2102    1.9354    0.0000 H   0  0  0  0  0  0  0  0  0  0  0  0
    4.7812    1.1104    0.0000 H   0  0  0  0  0  0  0  0  0  0  0  0
    4.0668    0.6979    0.0000 H   0  0  0  0  0  0  0  0  0  0  0  0
    2.6378   -0.1271    0.0000 H   0  0  0  0  0  0  0  0  0  0  0  0
    0.0768   -0.1007    0.0000 H   0  0  0  0  0  0  0  0  0  0  0  0
    2.5399   -1.7684    0.0000 H   0  0  0  0  0  0  0  0  0  0  0  0
    2.0300   -3.3377    0.0000 H   0  0  0  0  0  0  0  0  0  0  0  0
   -0.9429   -3.2392    0.0000 H   0  0  0  0  0  0  0  0  0  0  0  0
   -1.4528   -4.8084    0.0000 H   0  0  0  0  0  0  0  0  0  0  0  0
   -0.6880   -2.4545    0.0000 H   0  0  0  0  0  0  0  0  0  0  0  0
   -0.1781   -0.8853    0.0000 H   0  0  0  0  0  0  0  0  0  0  0  0
   -0.1712    1.5229    0.0000 H   0  0  0  0  0  0  0  0  0  0  0  0
    2.6378    3.1729    0.0000 H   0  0  0  0  0  0  0  0  0  0  0  0
    3.3523    3.5854    0.0000 H   0  0  0  0  0  0  0  0  0  0  0  0
  1  2  1  0  0  0  0
  2  3  1  0  0  0  0
  3  4  4  0  0  0  0
  4  5  4  0  0  0  0
  5  6  4  0  0  0  0
  6  7  4  0  0  0  0
  7  8  1  0  0  0  0
  8  9  4  0  0  0  0
  9 10  4  0  0  0  0
 10 11  4  0  0  0  0
 11 12  4  0  0  0  0
 12 13  1  0  0  0  0
 13 14  1  0  0  0  0
 14 15  2  0  0  0  0
 14 16  1  0  0  0  0
 16 17  4  0  0  0  0
 17 18  4  0  0  0  0
 18 19  4  0  0  0  0
 19 20  1  0  0  0  0
 20 21  2  0  0  0  0
 20 22  1  0  0  0  0
 22 23  1  0  0  0  0
 19 24  4  0  0  0  0
 24 25  4  0  0  0  0
 16 25  4  0  0  0  0
 12 26  4  0  0  0  0
 26 27  4  0  0  0  0
 27 28  4  0  0  0  0
 11 28  4  0  0  0  0
 28 29  4  0  0  0  0
  8 29  4  0  0  0  0
  7 30  4  0  0  0  0
  3 30  4  0  0  0  0
  1 31  1  0  0  0  0
  1 32  1  0  0  0  0
  1 33  1  0  0  0  0
  4 34  1  0  0  0  0
  5 35  1  0  0  0  0
  6 36  1  0  0  0  0
  9 37  1  0  0  0  0
 10 38  1  0  0  0  0
 13 39  1  0  0  0  0
 17 40  1  0  0  0  0
 18 41  1  0  0  0  0
 22 42  1  0  0  0  0
 23 43  1  0  0  0  0
 24 44  1  0  0  0  0
 25 45  1  0  0  0  0
 26 46  1  0  0  0  0
 29 47  1  0  0  0  0
 30 48  1  0  0  0  0
M  END
>  <Molecule ChEMBL ID>
CHEMBL4214652

>  <Compound Key>
7e

>  <Active>
0

>  <StandardizerResult>
Dearomatize (ID: Dearomatize)
Clear Stereo (ID: ClearStereo)
Wedge Clean (ID: WedgeClean)
Mesomerize (ID: Mesomerize)
Tautomerize (ID: Tautomerize)
Aromatize (ID: Aromatize)
Add Explicit Hydrogens (ID: AddExplicitH)
Neutralize (ID: Neutralize)
Clean 2D (ID: Clean2D)


$$$$

  Mrv1551102232211292D          

 44 47  0  0  0  0            999 V2000
   -1.7499   -5.6315    0.0000 O   0  0  0  0  0  0  0  0  0  0  0  0
   -0.9429   -5.4600    0.0000 C   0  0  0  0  0  0  0  0  0  0  0  0
   -0.3909   -6.0731    0.0000 N   0  0  0  0  0  0  0  0  0  0  0  0
   -0.6458   -6.8577    0.0000 O   0  0  0  0  0  0  0  0  0  0  0  0
   -0.6880   -4.6754    0.0000 C   0  0  0  0  0  0  0  0  0  0  0  0
   -1.2400   -4.0623    0.0000 C   0  0  0  0  0  0  0  0  0  0  0  0
   -0.9851   -3.2777    0.0000 C   0  0  0  0  0  0  0  0  0  0  0  0
   -0.1781   -3.1061    0.0000 C   0  0  0  0  0  0  0  0  0  0  0  0
    0.0768   -2.3215    0.0000 C   0  0  0  0  0  0  0  0  0  0  0  0
   -0.4752   -1.7084    0.0000 O   0  0  0  0  0  0  0  0  0  0  0  0
    0.8838   -2.1500    0.0000 N   0  0  0  0  0  0  0  0  0  0  0  0
    1.1387   -1.3654    0.0000 C   0  0  0  0  0  0  0  0  0  0  0  0
    0.6538   -0.6979    0.0000 N   0  0  0  0  0  0  0  0  0  0  0  0
    1.1387   -0.0305    0.0000 N   0  0  0  0  0  0  0  0  0  0  0  0
    1.9233   -0.2854    0.0000 C   0  0  0  0  0  0  0  0  0  0  0  0
    2.6378    0.1271    0.0000 C   0  0  0  0  0  0  0  0  0  0  0  0
    3.3523   -0.2854    0.0000 C   0  0  0  0  0  0  0  0  0  0  0  0
    4.0668    0.1271    0.0000 C   0  0  0  0  0  0  0  0  0  0  0  0
    4.0668    0.9521    0.0000 C   0  0  0  0  0  0  0  0  0  0  0  0
    4.7812    1.3646    0.0000 C   0  0  0  0  0  0  0  0  0  0  0  0
    5.4957    0.9521    0.0000 C   0  0  0  0  0  0  0  0  0  0  0  0
    6.2102    1.3646    0.0000 Cl  0  0  0  0  0  0  0  0  0  0  0  0
    5.4957    0.1271    0.0000 C   0  0  0  0  0  0  0  0  0  0  0  0
    6.2102   -0.2854    0.0000 Cl  0  0  0  0  0  0  0  0  0  0  0  0
    4.7812   -0.2854    0.0000 C   0  0  0  0  0  0  0  0  0  0  0  0
    3.3523   -1.1104    0.0000 C   0  0  0  0  0  0  0  0  0  0  0  0
    2.6378   -1.5229    0.0000 C   0  0  0  0  0  0  0  0  0  0  0  0
    1.9233   -1.1104    0.0000 C   0  0  0  0  0  0  0  0  0  0  0  0
    0.3739   -3.7192    0.0000 C   0  0  0  0  0  0  0  0  0  0  0  0
    0.1190   -4.5038    0.0000 C   0  0  0  0  0  0  0  0  0  0  0  0
    0.4161   -5.9016    0.0000 H   0  0  0  0  0  0  0  0  0  0  0  0
   -1.4528   -7.0292    0.0000 H   0  0  0  0  0  0  0  0  0  0  0  0
   -2.0470   -4.2338    0.0000 H   0  0  0  0  0  0  0  0  0  0  0  0
   -1.5371   -2.6646    0.0000 H   0  0  0  0  0  0  0  0  0  0  0  0
    1.4358   -2.7631    0.0000 H   0  0  0  0  0  0  0  0  0  0  0  0
   -0.1712   -0.6979    0.0000 H   0  0  0  0  0  0  0  0  0  0  0  0
    2.6378    0.9521    0.0000 H   0  0  0  0  0  0  0  0  0  0  0  0
    3.3523    1.3646    0.0000 H   0  0  0  0  0  0  0  0  0  0  0  0
    4.7812    2.1896    0.0000 H   0  0  0  0  0  0  0  0  0  0  0  0
    4.7812   -1.1104    0.0000 H   0  0  0  0  0  0  0  0  0  0  0  0
    4.0668   -1.5229    0.0000 H   0  0  0  0  0  0  0  0  0  0  0  0
    2.6378   -2.3479    0.0000 H   0  0  0  0  0  0  0  0  0  0  0  0
    1.1809   -3.5477    0.0000 H   0  0  0  0  0  0  0  0  0  0  0  0
    0.6710   -5.1169    0.0000 H   0  0  0  0  0  0  0  0  0  0  0  0
  1  2  2  0  0  0  0
  2  3  1  0  0  0  0
  3  4  1  0  0  0  0
  2  5  1  0  0  0  0
  5  6  4  0  0  0  0
  6  7  4  0  0  0  0
  7  8  4  0  0  0  0
  8  9  1  0  0  0  0
  9 10  2  0  0  0  0
  9 11  1  0  0  0  0
 11 12  1  0  0  0  0
 12 13  4  0  0  0  0
 13 14  4  0  0  0  0
 14 15  4  0  0  0  0
 15 16  4  0  0  0  0
 16 17  4  0  0  0  0
 17 18  1  0  0  0  0
 18 19  4  0  0  0  0
 19 20  4  0  0  0  0
 20 21  4  0  0  0  0
 21 22  1  0  0  0  0
 21 23  4  0  0  0  0
 23 24  1  0  0  0  0
 23 25  4  0  0  0  0
 18 25  4  0  0  0  0
 17 26  4  0  0  0  0
 26 27  4  0  0  0  0
 27 28  4  0  0  0  0
 12 28  4  0  0  0  0
 15 28  4  0  0  0  0
  8 29  4  0  0  0  0
 29 30  4  0  0  0  0
  5 30  4  0  0  0  0
  3 31  1  0  0  0  0
  4 32  1  0  0  0  0
  6 33  1  0  0  0  0
  7 34  1  0  0  0  0
 11 35  1  0  0  0  0
 13 36  1  0  0  0  0
 16 37  1  0  0  0  0
 19 38  1  0  0  0  0
 20 39  1  0  0  0  0
 25 40  1  0  0  0  0
 26 41  1  0  0  0  0
 27 42  1  0  0  0  0
 29 43  1  0  0  0  0
 30 44  1  0  0  0  0
M  END
>  <Molecule ChEMBL ID>
CHEMBL4213207

>  <Compound Key>
7l

>  <Active>
0

>  <StandardizerResult>
Dearomatize (ID: Dearomatize)
Clear Stereo (ID: ClearStereo)
Wedge Clean (ID: WedgeClean)
Mesomerize (ID: Mesomerize)
Tautomerize (ID: Tautomerize)
Aromatize (ID: Aromatize)
Add Explicit Hydrogens (ID: AddExplicitH)
Neutralize (ID: Neutralize)
Clean 2D (ID: Clean2D)


$$$$

  Mrv1551102232211292D          

 44 47  0  0  0  0            999 V2000
   -1.7499   -5.6315    0.0000 O   0  0  0  0  0  0  0  0  0  0  0  0
   -0.9429   -5.4600    0.0000 C   0  0  0  0  0  0  0  0  0  0  0  0
   -0.3909   -6.0731    0.0000 N   0  0  0  0  0  0  0  0  0  0  0  0
   -0.6458   -6.8577    0.0000 O   0  0  0  0  0  0  0  0  0  0  0  0
   -0.6880   -4.6754    0.0000 C   0  0  0  0  0  0  0  0  0  0  0  0
   -1.2400   -4.0623    0.0000 C   0  0  0  0  0  0  0  0  0  0  0  0
   -0.9851   -3.2777    0.0000 C   0  0  0  0  0  0  0  0  0  0  0  0
   -0.1781   -3.1061    0.0000 C   0  0  0  0  0  0  0  0  0  0  0  0
    0.0768   -2.3215    0.0000 C   0  0  0  0  0  0  0  0  0  0  0  0
   -0.4752   -1.7084    0.0000 O   0  0  0  0  0  0  0  0  0  0  0  0
    0.8838   -2.1500    0.0000 N   0  0  0  0  0  0  0  0  0  0  0  0
    1.1387   -1.3654    0.0000 C   0  0  0  0  0  0  0  0  0  0  0  0
    0.6538   -0.6979    0.0000 N   0  0  0  0  0  0  0  0  0  0  0  0
    1.1387   -0.0305    0.0000 N   0  0  0  0  0  0  0  0  0  0  0  0
    1.9233   -0.2854    0.0000 C   0  0  0  0  0  0  0  0  0  0  0  0
    2.6378    0.1271    0.0000 C   0  0  0  0  0  0  0  0  0  0  0  0
    3.3523   -0.2854    0.0000 C   0  0  0  0  0  0  0  0  0  0  0  0
    4.0668    0.1271    0.0000 C   0  0  0  0  0  0  0  0  0  0  0  0
    4.0668    0.9521    0.0000 C   0  0  0  0  0  0  0  0  0  0  0  0
    4.7812    1.3646    0.0000 C   0  0  0  0  0  0  0  0  0  0  0  0
    5.4957    0.9521    0.0000 C   0  0  0  0  0  0  0  0  0  0  0  0
    5.4957    0.1271    0.0000 C   0  0  0  0  0  0  0  0  0  0  0  0
    6.2102   -0.2854    0.0000 Cl  0  0  0  0  0  0  0  0  0  0  0  0
    4.7812   -0.2854    0.0000 C   0  0  0  0  0  0  0  0  0  0  0  0
    4.7812   -1.1104    0.0000 Cl  0  0  0  0  0  0  0  0  0  0  0  0
    3.3523   -1.1104    0.0000 C   0  0  0  0  0  0  0  0  0  0  0  0
    2.6378   -1.5229    0.0000 C   0  0  0  0  0  0  0  0  0  0  0  0
    1.9233   -1.1104    0.0000 C   0  0  0  0  0  0  0  0  0  0  0  0
    0.3739   -3.7192    0.0000 C   0  0  0  0  0  0  0  0  0  0  0  0
    0.1190   -4.5038    0.0000 C   0  0  0  0  0  0  0  0  0  0  0  0
    0.4161   -5.9016    0.0000 H   0  0  0  0  0  0  0  0  0  0  0  0
   -1.4528   -7.0292    0.0000 H   0  0  0  0  0  0  0  0  0  0  0  0
   -2.0470   -4.2338    0.0000 H   0  0  0  0  0  0  0  0  0  0  0  0
   -1.5371   -2.6646    0.0000 H   0  0  0  0  0  0  0  0  0  0  0  0
    1.4358   -2.7631    0.0000 H   0  0  0  0  0  0  0  0  0  0  0  0
   -0.1712   -0.6979    0.0000 H   0  0  0  0  0  0  0  0  0  0  0  0
    2.6378    0.9521    0.0000 H   0  0  0  0  0  0  0  0  0  0  0  0
    3.3523    1.3646    0.0000 H   0  0  0  0  0  0  0  0  0  0  0  0
    4.7812    2.1896    0.0000 H   0  0  0  0  0  0  0  0  0  0  0  0
    6.2102    1.3646    0.0000 H   0  0  0  0  0  0  0  0  0  0  0  0
    4.0668   -1.5229    0.0000 H   0  0  0  0  0  0  0  0  0  0  0  0
    2.6378   -2.3479    0.0000 H   0  0  0  0  0  0  0  0  0  0  0  0
    1.1809   -3.5477    0.0000 H   0  0  0  0  0  0  0  0  0  0  0  0
    0.6710   -5.1169    0.0000 H   0  0  0  0  0  0  0  0  0  0  0  0
  1  2  2  0  0  0  0
  2  3  1  0  0  0  0
  3  4  1  0  0  0  0
  2  5  1  0  0  0  0
  5  6  4  0  0  0  0
  6  7  4  0  0  0  0
  7  8  4  0  0  0  0
  8  9  1  0  0  0  0
  9 10  2  0  0  0  0
  9 11  1  0  0  0  0
 11 12  1  0  0  0  0
 12 13  4  0  0  0  0
 13 14  4  0  0  0  0
 14 15  4  0  0  0  0
 15 16  4  0  0  0  0
 16 17  4  0  0  0  0
 17 18  1  0  0  0  0
 18 19  4  0  0  0  0
 19 20  4  0  0  0  0
 20 21  4  0  0  0  0
 21 22  4  0  0  0  0
 22 23  1  0  0  0  0
 22 24  4  0  0  0  0
 18 24  4  0  0  0  0
 24 25  1  0  0  0  0
 17 26  4  0  0  0  0
 26 27  4  0  0  0  0
 27 28  4  0  0  0  0
 12 28  4  0  0  0  0
 15 28  4  0  0  0  0
  8 29  4  0  0  0  0
 29 30  4  0  0  0  0
  5 30  4  0  0  0  0
  3 31  1  0  0  0  0
  4 32  1  0  0  0  0
  6 33  1  0  0  0  0
  7 34  1  0  0  0  0
 11 35  1  0  0  0  0
 13 36  1  0  0  0  0
 16 37  1  0  0  0  0
 19 38  1  0  0  0  0
 20 39  1  0  0  0  0
 21 40  1  0  0  0  0
 26 41  1  0  0  0  0
 27 42  1  0  0  0  0
 29 43  1  0  0  0  0
 30 44  1  0  0  0  0
M  END
>  <Molecule ChEMBL ID>
CHEMBL4208276

>  <Compound Key>
7g

>  <Active>
0

>  <StandardizerResult>
Dearomatize (ID: Dearomatize)
Clear Stereo (ID: ClearStereo)
Wedge Clean (ID: WedgeClean)
Mesomerize (ID: Mesomerize)
Tautomerize (ID: Tautomerize)
Aromatize (ID: Aromatize)
Add Explicit Hydrogens (ID: AddExplicitH)
Neutralize (ID: Neutralize)
Clean 2D (ID: Clean2D)


$$$$

  Mrv1551102232211292D          

 44 47  0  0  0  0            999 V2000
   -1.7499   -5.6315    0.0000 O   0  0  0  0  0  0  0  0  0  0  0  0
   -0.9429   -5.4600    0.0000 C   0  0  0  0  0  0  0  0  0  0  0  0
   -0.3909   -6.0731    0.0000 N   0  0  0  0  0  0  0  0  0  0  0  0
   -0.6458   -6.8577    0.0000 O   0  0  0  0  0  0  0  0  0  0  0  0
   -0.6880   -4.6754    0.0000 C   0  0  0  0  0  0  0  0  0  0  0  0
   -1.2400   -4.0623    0.0000 C   0  0  0  0  0  0  0  0  0  0  0  0
   -0.9851   -3.2777    0.0000 C   0  0  0  0  0  0  0  0  0  0  0  0
   -0.1781   -3.1061    0.0000 C   0  0  0  0  0  0  0  0  0  0  0  0
    0.0768   -2.3215    0.0000 C   0  0  0  0  0  0  0  0  0  0  0  0
   -0.4752   -1.7084    0.0000 O   0  0  0  0  0  0  0  0  0  0  0  0
    0.8838   -2.1500    0.0000 N   0  0  0  0  0  0  0  0  0  0  0  0
    1.1387   -1.3654    0.0000 C   0  0  0  0  0  0  0  0  0  0  0  0
    0.6538   -0.6979    0.0000 N   0  0  0  0  0  0  0  0  0  0  0  0
    1.1387   -0.0305    0.0000 N   0  0  0  0  0  0  0  0  0  0  0  0
    1.9233   -0.2854    0.0000 C   0  0  0  0  0  0  0  0  0  0  0  0
    2.6378    0.1271    0.0000 C   0  0  0  0  0  0  0  0  0  0  0  0
    3.3523   -0.2854    0.0000 C   0  0  0  0  0  0  0  0  0  0  0  0
    4.0668    0.1271    0.0000 C   0  0  0  0  0  0  0  0  0  0  0  0
    4.0668    0.9521    0.0000 C   0  0  0  0  0  0  0  0  0  0  0  0
    4.7812    1.3646    0.0000 C   0  0  0  0  0  0  0  0  0  0  0  0
    4.7812    2.1896    0.0000 Cl  0  0  0  0  0  0  0  0  0  0  0  0
    5.4957    0.9521    0.0000 C   0  0  0  0  0  0  0  0  0  0  0  0
    5.4957    0.1271    0.0000 C   0  0  0  0  0  0  0  0  0  0  0  0
    4.7812   -0.2854    0.0000 C   0  0  0  0  0  0  0  0  0  0  0  0
    4.7812   -1.1104    0.0000 Cl  0  0  0  0  0  0  0  0  0  0  0  0
    3.3523   -1.1104    0.0000 C   0  0  0  0  0  0  0  0  0  0  0  0
    2.6378   -1.5229    0.0000 C   0  0  0  0  0  0  0  0  0  0  0  0
    1.9233   -1.1104    0.0000 C   0  0  0  0  0  0  0  0  0  0  0  0
    0.3739   -3.7192    0.0000 C   0  0  0  0  0  0  0  0  0  0  0  0
    0.1190   -4.5038    0.0000 C   0  0  0  0  0  0  0  0  0  0  0  0
    0.4161   -5.9016    0.0000 H   0  0  0  0  0  0  0  0  0  0  0  0
   -1.4528   -7.0292    0.0000 H   0  0  0  0  0  0  0  0  0  0  0  0
   -2.0470   -4.2338    0.0000 H   0  0  0  0  0  0  0  0  0  0  0  0
   -1.5371   -2.6646    0.0000 H   0  0  0  0  0  0  0  0  0  0  0  0
    1.4358   -2.7631    0.0000 H   0  0  0  0  0  0  0  0  0  0  0  0
   -0.1712   -0.6979    0.0000 H   0  0  0  0  0  0  0  0  0  0  0  0
    2.6378    0.9521    0.0000 H   0  0  0  0  0  0  0  0  0  0  0  0
    3.3523    1.3646    0.0000 H   0  0  0  0  0  0  0  0  0  0  0  0
    6.2102    1.3646    0.0000 H   0  0  0  0  0  0  0  0  0  0  0  0
    6.2102   -0.2854    0.0000 H   0  0  0  0  0  0  0  0  0  0  0  0
    4.0668   -1.5229    0.0000 H   0  0  0  0  0  0  0  0  0  0  0  0
    2.6378   -2.3479    0.0000 H   0  0  0  0  0  0  0  0  0  0  0  0
    1.1809   -3.5477    0.0000 H   0  0  0  0  0  0  0  0  0  0  0  0
    0.6710   -5.1169    0.0000 H   0  0  0  0  0  0  0  0  0  0  0  0
  1  2  2  0  0  0  0
  2  3  1  0  0  0  0
  3  4  1  0  0  0  0
  2  5  1  0  0  0  0
  5  6  4  0  0  0  0
  6  7  4  0  0  0  0
  7  8  4  0  0  0  0
  8  9  1  0  0  0  0
  9 10  2  0  0  0  0
  9 11  1  0  0  0  0
 11 12  1  0  0  0  0
 12 13  4  0  0  0  0
 13 14  4  0  0  0  0
 14 15  4  0  0  0  0
 15 16  4  0  0  0  0
 16 17  4  0  0  0  0
 17 18  1  0  0  0  0
 18 19  4  0  0  0  0
 19 20  4  0  0  0  0
 20 21  1  0  0  0  0
 20 22  4  0  0  0  0
 22 23  4  0  0  0  0
 23 24  4  0  0  0  0
 18 24  4  0  0  0  0
 24 25  1  0  0  0  0
 17 26  4  0  0  0  0
 26 27  4  0  0  0  0
 27 28  4  0  0  0  0
 12 28  4  0  0  0  0
 15 28  4  0  0  0  0
  8 29  4  0  0  0  0
 29 30  4  0  0  0  0
  5 30  4  0  0  0  0
  3 31  1  0  0  0  0
  4 32  1  0  0  0  0
  6 33  1  0  0  0  0
  7 34  1  0  0  0  0
 11 35  1  0  0  0  0
 13 36  1  0  0  0  0
 16 37  1  0  0  0  0
 19 38  1  0  0  0  0
 22 39  1  0  0  0  0
 23 40  1  0  0  0  0
 26 41  1  0  0  0  0
 27 42  1  0  0  0  0
 29 43  1  0  0  0  0
 30 44  1  0  0  0  0
M  END
>  <Molecule ChEMBL ID>
CHEMBL4207699

>  <Compound Key>
7r

>  <Active>
0

>  <StandardizerResult>
Dearomatize (ID: Dearomatize)
Clear Stereo (ID: ClearStereo)
Wedge Clean (ID: WedgeClean)
Mesomerize (ID: Mesomerize)
Tautomerize (ID: Tautomerize)
Aromatize (ID: Aromatize)
Add Explicit Hydrogens (ID: AddExplicitH)
Neutralize (ID: Neutralize)
Clean 2D (ID: Clean2D)


$$$$

  Mrv1551102232211292D          

 49 51  0  0  0  0            999 V2000
   -5.7055   -4.1168    0.0000 C   0  0  0  0  0  0  0  0  0  0  0  0
   -5.7055   -4.9418    0.0000 C   0  0  0  0  0  0  0  0  0  0  0  0
   -4.9911   -5.3543    0.0000 N   0  0  0  0  0  0  0  0  0  0  0  0
   -4.9911   -6.1793    0.0000 C   0  0  0  0  0  0  0  0  0  0  0  0
   -4.2766   -6.5918    0.0000 N   0  0  0  0  0  0  0  0  0  0  0  0
   -4.2766   -7.4168    0.0000 C   0  0  0  0  0  0  0  0  0  0  0  0
   -3.5621   -6.1793    0.0000 C   0  0  0  0  0  0  0  0  0  0  0  0
   -3.5621   -5.3543    0.0000 C   0  0  0  0  0  0  0  0  0  0  0  0
   -2.8477   -4.9418    0.0000 C   0  0  0  0  0  0  0  0  0  0  0  0
   -2.1332   -5.3543    0.0000 C   0  0  0  0  0  0  0  0  0  0  0  0
   -1.4187   -4.9418    0.0000 O   0  0  0  0  0  0  0  0  0  0  0  0
   -0.7042   -5.3543    0.0000 C   0  0  0  0  0  0  0  0  0  0  0  0
    0.0102   -4.9418    0.0000 C   0  0  0  0  0  0  0  0  0  0  0  0
    0.7247   -5.3543    0.0000 C   0  0  0  0  0  0  0  0  0  0  0  0
    1.4392   -4.9418    0.0000 C   0  0  0  0  0  0  0  0  0  0  0  0
    1.4392   -4.1168    0.0000 O   0  0  0  0  0  0  0  0  0  0  0  0
    2.1536   -5.3543    0.0000 N   0  0  0  0  0  0  0  0  0  0  0  0
    2.8681   -4.9418    0.0000 O   0  0  0  0  0  0  0  0  0  0  0  0
   -2.1332   -6.1793    0.0000 C   0  0  0  0  0  0  0  0  0  0  0  0
   -2.8477   -6.5918    0.0000 C   0  0  0  0  0  0  0  0  0  0  0  0
   -5.7055   -6.5918    0.0000 C   0  0  0  0  0  0  0  0  0  0  0  0
   -5.7055   -7.4168    0.0000 C   0  0  0  0  0  0  0  0  0  0  0  0
   -6.4200   -7.8293    0.0000 C   0  0  0  0  0  0  0  0  0  0  0  0
   -7.1345   -7.4168    0.0000 C   0  0  0  0  0  0  0  0  0  0  0  0
   -7.1345   -6.5918    0.0000 C   0  0  0  0  0  0  0  0  0  0  0  0
   -6.4200   -6.1793    0.0000 C   0  0  0  0  0  0  0  0  0  0  0  0
   -6.4200   -5.3543    0.0000 N   0  0  0  0  0  0  0  0  0  0  0  0
   -4.8805   -4.1168    0.0000 H   0  0  0  0  0  0  0  0  0  0  0  0
   -5.7055   -3.2918    0.0000 H   0  0  0  0  0  0  0  0  0  0  0  0
   -6.5305   -4.1168    0.0000 H   0  0  0  0  0  0  0  0  0  0  0  0
   -5.1016   -7.4168    0.0000 H   0  0  0  0  0  0  0  0  0  0  0  0
   -4.2766   -8.2418    0.0000 H   0  0  0  0  0  0  0  0  0  0  0  0
   -3.4516   -7.4168    0.0000 H   0  0  0  0  0  0  0  0  0  0  0  0
   -4.2766   -4.9418    0.0000 H   0  0  0  0  0  0  0  0  0  0  0  0
   -2.8477   -4.1168    0.0000 H   0  0  0  0  0  0  0  0  0  0  0  0
   -1.0745   -6.0915    0.0000 H   0  0  0  0  0  0  0  0  0  0  0  0
   -0.3340   -6.0915    0.0000 H   0  0  0  0  0  0  0  0  0  0  0  0
    0.3805   -4.2045    0.0000 H   0  0  0  0  0  0  0  0  0  0  0  0
   -0.3600   -4.2045    0.0000 H   0  0  0  0  0  0  0  0  0  0  0  0
    0.3544   -6.0915    0.0000 H   0  0  0  0  0  0  0  0  0  0  0  0
    1.0950   -6.0915    0.0000 H   0  0  0  0  0  0  0  0  0  0  0  0
    2.1536   -6.1793    0.0000 H   0  0  0  0  0  0  0  0  0  0  0  0
    3.5826   -5.3543    0.0000 H   0  0  0  0  0  0  0  0  0  0  0  0
   -1.4187   -6.5918    0.0000 H   0  0  0  0  0  0  0  0  0  0  0  0
   -2.8477   -7.4168    0.0000 H   0  0  0  0  0  0  0  0  0  0  0  0
   -5.4920   -8.2137    0.0000 H   0  0  0  0  0  0  0  0  0  0  0  0
   -6.4200   -8.6543    0.0000 H   0  0  0  0  0  0  0  0  0  0  0  0
   -7.8490   -7.8293    0.0000 H   0  0  0  0  0  0  0  0  0  0  0  0
   -7.8490   -6.1793    0.0000 H   0  0  0  0  0  0  0  0  0  0  0  0
  1  2  1  0  0  0  0
  2  3  4  0  0  0  0
  3  4  4  0  0  0  0
  4  5  1  0  0  0  0
  5  6  1  0  0  0  0
  5  7  1  0  0  0  0
  7  8  4  0  0  0  0
  8  9  4  0  0  0  0
  9 10  4  0  0  0  0
 10 11  1  0  0  0  0
 11 12  1  0  0  0  0
 12 13  1  0  0  0  0
 13 14  1  0  0  0  0
 14 15  1  0  0  0  0
 15 16  2  0  0  0  0
 15 17  1  0  0  0  0
 17 18  1  0  0  0  0
 10 19  4  0  0  0  0
 19 20  4  0  0  0  0
  7 20  4  0  0  0  0
  4 21  4  0  0  0  0
 21 22  4  0  0  0  0
 22 23  4  0  0  0  0
 23 24  4  0  0  0  0
 24 25  4  0  0  0  0
 25 26  4  0  0  0  0
 21 26  4  0  0  0  0
 26 27  4  0  0  0  0
  2 27  4  0  0  0  0
  1 28  1  0  0  0  0
  1 29  1  0  0  0  0
  1 30  1  0  0  0  0
  6 31  1  0  0  0  0
  6 32  1  0  0  0  0
  6 33  1  0  0  0  0
  8 34  1  0  0  0  0
  9 35  1  0  0  0  0
 12 36  1  0  0  0  0
 12 37  1  0  0  0  0
 13 38  1  0  0  0  0
 13 39  1  0  0  0  0
 14 40  1  0  0  0  0
 14 41  1  0  0  0  0
 17 42  1  0  0  0  0
 18 43  1  0  0  0  0
 19 44  1  0  0  0  0
 20 45  1  0  0  0  0
 22 46  1  0  0  0  0
 23 47  1  0  0  0  0
 24 48  1  0  0  0  0
 25 49  1  0  0  0  0
M  END
>  <Molecule ChEMBL ID>
CHEMBL3775662

>  <Compound Key>
7b

>  <Active>
0

>  <StandardizerResult>
Dearomatize (ID: Dearomatize)
Clear Stereo (ID: ClearStereo)
Wedge Clean (ID: WedgeClean)
Mesomerize (ID: Mesomerize)
Tautomerize (ID: Tautomerize)
Aromatize (ID: Aromatize)
Add Explicit Hydrogens (ID: AddExplicitH)
Neutralize (ID: Neutralize)
Clean 2D (ID: Clean2D)


$$$$

  Mrv1551102232211292D          

 48 51  0  0  0  0            999 V2000
   -1.8944    0.9230    0.0000 O   0  0  0  0  0  0  0  0  0  0  0  0
   -2.1494    0.1384    0.0000 C   0  0  0  0  0  0  0  0  0  0  0  0
   -2.9563   -0.0331    0.0000 N   0  0  0  0  0  0  0  0  0  0  0  0
   -3.5084    0.5799    0.0000 O   0  0  0  0  0  0  0  0  0  0  0  0
   -1.5973   -0.4747    0.0000 C   0  0  0  0  0  0  0  0  0  0  0  0
   -0.7904   -0.3032    0.0000 C   0  0  0  0  0  0  0  0  0  0  0  0
   -0.2383   -0.9163    0.0000 C   0  0  0  0  0  0  0  0  0  0  0  0
   -0.4933   -1.7009    0.0000 C   0  0  0  0  0  0  0  0  0  0  0  0
    0.0588   -2.3140    0.0000 C   0  0  0  0  0  0  0  0  0  0  0  0
   -0.1962   -3.0986    0.0000 O   0  0  0  0  0  0  0  0  0  0  0  0
    0.8657   -2.1425    0.0000 N   0  0  0  0  0  0  0  0  0  0  0  0
    1.1207   -1.3579    0.0000 C   0  0  0  0  0  0  0  0  0  0  0  0
    0.6358   -0.6904    0.0000 N   0  0  0  0  0  0  0  0  0  0  0  0
    1.1207   -0.0230    0.0000 N   0  0  0  0  0  0  0  0  0  0  0  0
    1.9053   -0.2779    0.0000 C   0  0  0  0  0  0  0  0  0  0  0  0
    2.6198    0.1346    0.0000 C   0  0  0  0  0  0  0  0  0  0  0  0
    3.3342   -0.2779    0.0000 C   0  0  0  0  0  0  0  0  0  0  0  0
    4.0487    0.1346    0.0000 C   0  0  0  0  0  0  0  0  0  0  0  0
    4.0487    0.9596    0.0000 C   0  0  0  0  0  0  0  0  0  0  0  0
    4.7632    1.3721    0.0000 C   0  0  0  0  0  0  0  0  0  0  0  0
    5.4777    0.9596    0.0000 C   0  0  0  0  0  0  0  0  0  0  0  0
    5.4777    0.1346    0.0000 C   0  0  0  0  0  0  0  0  0  0  0  0
    6.1921   -0.2779    0.0000 O   0  0  0  0  0  0  0  0  0  0  0  0
    6.9066    0.1346    0.0000 C   0  0  0  0  0  0  0  0  0  0  0  0
    7.6211    0.5471    0.0000 F   0  0  0  0  0  0  0  0  0  0  0  0
    7.3191   -0.5799    0.0000 F   0  0  0  0  0  0  0  0  0  0  0  0
    6.4941    0.8491    0.0000 F   0  0  0  0  0  0  0  0  0  0  0  0
    4.7632   -0.2779    0.0000 C   0  0  0  0  0  0  0  0  0  0  0  0
    3.3342   -1.1029    0.0000 C   0  0  0  0  0  0  0  0  0  0  0  0
    2.6198   -1.5154    0.0000 C   0  0  0  0  0  0  0  0  0  0  0  0
    1.9053   -1.1029    0.0000 C   0  0  0  0  0  0  0  0  0  0  0  0
   -1.3002   -1.8724    0.0000 C   0  0  0  0  0  0  0  0  0  0  0  0
   -1.8523   -1.2593    0.0000 C   0  0  0  0  0  0  0  0  0  0  0  0
   -3.2113   -0.8178    0.0000 H   0  0  0  0  0  0  0  0  0  0  0  0
   -3.2534    1.3646    0.0000 H   0  0  0  0  0  0  0  0  0  0  0  0
   -0.5354    0.4814    0.0000 H   0  0  0  0  0  0  0  0  0  0  0  0
    0.3269   -1.5172    0.0000 H   0  0  0  0  0  0  0  0  0  0  0  0
    1.4178   -2.7556    0.0000 H   0  0  0  0  0  0  0  0  0  0  0  0
    0.1715   -0.0084    0.0000 H   0  0  0  0  0  0  0  0  0  0  0  0
    2.6198    0.9596    0.0000 H   0  0  0  0  0  0  0  0  0  0  0  0
    3.3342    1.3721    0.0000 H   0  0  0  0  0  0  0  0  0  0  0  0
    4.7632    2.1971    0.0000 H   0  0  0  0  0  0  0  0  0  0  0  0
    6.1921    1.3721    0.0000 H   0  0  0  0  0  0  0  0  0  0  0  0
    4.7632   -1.1029    0.0000 H   0  0  0  0  0  0  0  0  0  0  0  0
    4.0487   -1.5154    0.0000 H   0  0  0  0  0  0  0  0  0  0  0  0
    2.6198   -2.3404    0.0000 H   0  0  0  0  0  0  0  0  0  0  0  0
   -1.5552   -2.6571    0.0000 H   0  0  0  0  0  0  0  0  0  0  0  0
   -2.6592   -1.4309    0.0000 H   0  0  0  0  0  0  0  0  0  0  0  0
  1  2  2  0  0  0  0
  2  3  1  0  0  0  0
  3  4  1  0  0  0  0
  2  5  1  0  0  0  0
  5  6  4  0  0  0  0
  6  7  4  0  0  0  0
  7  8  4  0  0  0  0
  8  9  1  0  0  0  0
  9 10  2  0  0  0  0
  9 11  1  0  0  0  0
 11 12  1  0  0  0  0
 12 13  4  0  0  0  0
 13 14  4  0  0  0  0
 14 15  4  0  0  0  0
 15 16  4  0  0  0  0
 16 17  4  0  0  0  0
 17 18  1  0  0  0  0
 18 19  4  0  0  0  0
 19 20  4  0  0  0  0
 20 21  4  0  0  0  0
 21 22  4  0  0  0  0
 22 23  1  0  0  0  0
 23 24  1  0  0  0  0
 24 25  1  0  0  0  0
 24 26  1  0  0  0  0
 24 27  1  0  0  0  0
 22 28  4  0  0  0  0
 18 28  4  0  0  0  0
 17 29  4  0  0  0  0
 29 30  4  0  0  0  0
 30 31  4  0  0  0  0
 12 31  4  0  0  0  0
 15 31  4  0  0  0  0
  8 32  4  0  0  0  0
 32 33  4  0  0  0  0
  5 33  4  0  0  0  0
  3 34  1  0  0  0  0
  4 35  1  0  0  0  0
  6 36  1  0  0  0  0
  7 37  1  0  0  0  0
 11 38  1  0  0  0  0
 13 39  1  0  0  0  0
 16 40  1  0  0  0  0
 19 41  1  0  0  0  0
 20 42  1  0  0  0  0
 21 43  1  0  0  0  0
 28 44  1  0  0  0  0
 29 45  1  0  0  0  0
 30 46  1  0  0  0  0
 32 47  1  0  0  0  0
 33 48  1  0  0  0  0
M  END
>  <Molecule ChEMBL ID>
CHEMBL4210396

>  <Compound Key>
7n

>  <Active>
0

>  <StandardizerResult>
Dearomatize (ID: Dearomatize)
Clear Stereo (ID: ClearStereo)
Wedge Clean (ID: WedgeClean)
Mesomerize (ID: Mesomerize)
Tautomerize (ID: Tautomerize)
Aromatize (ID: Aromatize)
Add Explicit Hydrogens (ID: AddExplicitH)
Neutralize (ID: Neutralize)
Clean 2D (ID: Clean2D)


$$$$

  Mrv1551102232211292D          

 52 55  0  0  0  0            999 V2000
    5.4957    4.8229    0.0000 C   0  0  0  0  0  0  0  0  0  0  0  0
    4.7812    4.4104    0.0000 O   0  0  0  0  0  0  0  0  0  0  0  0
    4.7812    3.5854    0.0000 C   0  0  0  0  0  0  0  0  0  0  0  0
    5.4957    3.1729    0.0000 C   0  0  0  0  0  0  0  0  0  0  0  0
    5.4957    2.3479    0.0000 C   0  0  0  0  0  0  0  0  0  0  0  0
    6.2102    1.9354    0.0000 O   0  0  0  0  0  0  0  0  0  0  0  0
    6.2102    1.1104    0.0000 C   0  0  0  0  0  0  0  0  0  0  0  0
    4.7812    1.9354    0.0000 C   0  0  0  0  0  0  0  0  0  0  0  0
    4.0668    2.3479    0.0000 C   0  0  0  0  0  0  0  0  0  0  0  0
    3.3523    1.9354    0.0000 C   0  0  0  0  0  0  0  0  0  0  0  0
    3.3523    1.1104    0.0000 C   0  0  0  0  0  0  0  0  0  0  0  0
    2.6378    0.6979    0.0000 C   0  0  0  0  0  0  0  0  0  0  0  0
    1.9233    1.1104    0.0000 C   0  0  0  0  0  0  0  0  0  0  0  0
    1.1387    0.8555    0.0000 C   0  0  0  0  0  0  0  0  0  0  0  0
    0.8838    0.0709    0.0000 N   0  0  0  0  0  0  0  0  0  0  0  0
    1.4358   -0.5422    0.0000 C   0  0  0  0  0  0  0  0  0  0  0  0
    2.2428   -0.3707    0.0000 O   0  0  0  0  0  0  0  0  0  0  0  0
    1.1809   -1.3269    0.0000 C   0  0  0  0  0  0  0  0  0  0  0  0
    1.7329   -1.9400    0.0000 C   0  0  0  0  0  0  0  0  0  0  0  0
    1.4780   -2.7246    0.0000 C   0  0  0  0  0  0  0  0  0  0  0  0
    0.6710   -2.8961    0.0000 C   0  0  0  0  0  0  0  0  0  0  0  0
    0.4161   -3.6807    0.0000 C   0  0  0  0  0  0  0  0  0  0  0  0
    0.9681   -4.2938    0.0000 O   0  0  0  0  0  0  0  0  0  0  0  0
   -0.3909   -3.8522    0.0000 N   0  0  0  0  0  0  0  0  0  0  0  0
   -0.6458   -4.6369    0.0000 O   0  0  0  0  0  0  0  0  0  0  0  0
    0.1190   -2.2830    0.0000 C   0  0  0  0  0  0  0  0  0  0  0  0
    0.3739   -1.4984    0.0000 C   0  0  0  0  0  0  0  0  0  0  0  0
    0.6538    1.5229    0.0000 N   0  0  0  0  0  0  0  0  0  0  0  0
    1.1387    2.1904    0.0000 N   0  0  0  0  0  0  0  0  0  0  0  0
    1.9233    1.9354    0.0000 C   0  0  0  0  0  0  0  0  0  0  0  0
    2.6378    2.3479    0.0000 C   0  0  0  0  0  0  0  0  0  0  0  0
    4.0668    3.1729    0.0000 C   0  0  0  0  0  0  0  0  0  0  0  0
    5.9082    4.1084    0.0000 H   0  0  0  0  0  0  0  0  0  0  0  0
    6.2102    5.2354    0.0000 H   0  0  0  0  0  0  0  0  0  0  0  0
    5.0832    5.5374    0.0000 H   0  0  0  0  0  0  0  0  0  0  0  0
    6.2102    3.5854    0.0000 H   0  0  0  0  0  0  0  0  0  0  0  0
    5.3852    1.1104    0.0000 H   0  0  0  0  0  0  0  0  0  0  0  0
    6.2102    0.2854    0.0000 H   0  0  0  0  0  0  0  0  0  0  0  0
    7.0352    1.1104    0.0000 H   0  0  0  0  0  0  0  0  0  0  0  0
    4.7812    1.1104    0.0000 H   0  0  0  0  0  0  0  0  0  0  0  0
    4.0668    0.6979    0.0000 H   0  0  0  0  0  0  0  0  0  0  0  0
    2.6378   -0.1271    0.0000 H   0  0  0  0  0  0  0  0  0  0  0  0
    0.0768   -0.1007    0.0000 H   0  0  0  0  0  0  0  0  0  0  0  0
    2.5399   -1.7684    0.0000 H   0  0  0  0  0  0  0  0  0  0  0  0
    2.0300   -3.3377    0.0000 H   0  0  0  0  0  0  0  0  0  0  0  0
   -0.9429   -3.2392    0.0000 H   0  0  0  0  0  0  0  0  0  0  0  0
   -1.4528   -4.8084    0.0000 H   0  0  0  0  0  0  0  0  0  0  0  0
   -0.6880   -2.4545    0.0000 H   0  0  0  0  0  0  0  0  0  0  0  0
   -0.1781   -0.8853    0.0000 H   0  0  0  0  0  0  0  0  0  0  0  0
   -0.1712    1.5229    0.0000 H   0  0  0  0  0  0  0  0  0  0  0  0
    2.6378    3.1729    0.0000 H   0  0  0  0  0  0  0  0  0  0  0  0
    3.3523    3.5854    0.0000 H   0  0  0  0  0  0  0  0  0  0  0  0
  1  2  1  0  0  0  0
  2  3  1  0  0  0  0
  3  4  4  0  0  0  0
  4  5  4  0  0  0  0
  5  6  1  0  0  0  0
  6  7  1  0  0  0  0
  5  8  4  0  0  0  0
  8  9  4  0  0  0  0
  9 10  1  0  0  0  0
 10 11  4  0  0  0  0
 11 12  4  0  0  0  0
 12 13  4  0  0  0  0
 13 14  4  0  0  0  0
 14 15  1  0  0  0  0
 15 16  1  0  0  0  0
 16 17  2  0  0  0  0
 16 18  1  0  0  0  0
 18 19  4  0  0  0  0
 19 20  4  0  0  0  0
 20 21  4  0  0  0  0
 21 22  1  0  0  0  0
 22 23  2  0  0  0  0
 22 24  1  0  0  0  0
 24 25  1  0  0  0  0
 21 26  4  0  0  0  0
 26 27  4  0  0  0  0
 18 27  4  0  0  0  0
 14 28  4  0  0  0  0
 28 29  4  0  0  0  0
 29 30  4  0  0  0  0
 13 30  4  0  0  0  0
 30 31  4  0  0  0  0
 10 31  4  0  0  0  0
  9 32  4  0  0  0  0
  3 32  4  0  0  0  0
  1 33  1  0  0  0  0
  1 34  1  0  0  0  0
  1 35  1  0  0  0  0
  4 36  1  0  0  0  0
  7 37  1  0  0  0  0
  7 38  1  0  0  0  0
  7 39  1  0  0  0  0
  8 40  1  0  0  0  0
 11 41  1  0  0  0  0
 12 42  1  0  0  0  0
 15 43  1  0  0  0  0
 19 44  1  0  0  0  0
 20 45  1  0  0  0  0
 24 46  1  0  0  0  0
 25 47  1  0  0  0  0
 26 48  1  0  0  0  0
 27 49  1  0  0  0  0
 28 50  1  0  0  0  0
 31 51  1  0  0  0  0
 32 52  1  0  0  0  0
M  END
>  <Molecule ChEMBL ID>
CHEMBL4210899

>  <Compound Key>
7h

>  <Active>
0

>  <StandardizerResult>
Dearomatize (ID: Dearomatize)
Clear Stereo (ID: ClearStereo)
Wedge Clean (ID: WedgeClean)
Mesomerize (ID: Mesomerize)
Tautomerize (ID: Tautomerize)
Aromatize (ID: Aromatize)
Add Explicit Hydrogens (ID: AddExplicitH)
Neutralize (ID: Neutralize)
Clean 2D (ID: Clean2D)


$$$$

  Mrv1551102232211292D          

 37 39  0  0  0  0            999 V2000
    2.5820   -6.1716    0.0000 O   0  0  0  0  0  0  0  0  0  0  0  0
    1.7751   -6.3431    0.0000 C   0  0  0  0  0  0  0  0  0  0  0  0
    1.2230   -5.7301    0.0000 C   0  0  0  0  0  0  0  0  0  0  0  0
    1.4780   -4.9454    0.0000 C   0  0  0  0  0  0  0  0  0  0  0  0
    0.9259   -4.3323    0.0000 C   0  0  0  0  0  0  0  0  0  0  0  0
    0.1190   -4.5039    0.0000 C   0  0  0  0  0  0  0  0  0  0  0  0
   -0.4331   -3.8908    0.0000 C   0  0  0  0  0  0  0  0  0  0  0  0
   -0.1781   -3.1061    0.0000 C   0  0  0  0  0  0  0  0  0  0  0  0
    0.6288   -2.9346    0.0000 C   0  0  0  0  0  0  0  0  0  0  0  0
    0.8838   -2.1500    0.0000 S   0  0  0  0  0  0  0  0  0  0  0  0
    0.0992   -1.8951    0.0000 O   0  0  0  0  0  0  0  0  0  0  0  0
    1.6684   -2.4049    0.0000 O   0  0  0  0  0  0  0  0  0  0  0  0
    1.1387   -1.3654    0.0000 N   0  0  0  0  0  0  0  0  0  0  0  0
    0.6538   -0.6979    0.0000 C   0  0  0  0  0  0  0  0  0  0  0  0
    1.1387   -0.0305    0.0000 C   0  0  0  0  0  0  0  0  0  0  0  0
    1.9233   -0.2854    0.0000 C   0  0  0  0  0  0  0  0  0  0  0  0
    2.6378    0.1271    0.0000 C   0  0  0  0  0  0  0  0  0  0  0  0
    3.3523   -0.2854    0.0000 C   0  0  0  0  0  0  0  0  0  0  0  0
    3.3523   -1.1104    0.0000 N   0  0  0  0  0  0  0  0  0  0  0  0
    2.6378   -1.5229    0.0000 C   0  0  0  0  0  0  0  0  0  0  0  0
    1.9233   -1.1104    0.0000 C   0  0  0  0  0  0  0  0  0  0  0  0
    1.1809   -3.5477    0.0000 C   0  0  0  0  0  0  0  0  0  0  0  0
    1.5201   -7.1278    0.0000 N   0  0  0  0  0  0  0  0  0  0  0  0
    2.0722   -7.7409    0.0000 O   0  0  0  0  0  0  0  0  0  0  0  0
    0.4161   -5.9016    0.0000 H   0  0  0  0  0  0  0  0  0  0  0  0
    2.2849   -4.7739    0.0000 H   0  0  0  0  0  0  0  0  0  0  0  0
   -0.1360   -5.2885    0.0000 H   0  0  0  0  0  0  0  0  0  0  0  0
   -1.2400   -4.0623    0.0000 H   0  0  0  0  0  0  0  0  0  0  0  0
   -0.7302   -2.4931    0.0000 H   0  0  0  0  0  0  0  0  0  0  0  0
   -0.1712   -0.6979    0.0000 H   0  0  0  0  0  0  0  0  0  0  0  0
    0.8838    0.7541    0.0000 H   0  0  0  0  0  0  0  0  0  0  0  0
    2.6378    0.9521    0.0000 H   0  0  0  0  0  0  0  0  0  0  0  0
    4.0668    0.1271    0.0000 H   0  0  0  0  0  0  0  0  0  0  0  0
    2.6378   -2.3479    0.0000 H   0  0  0  0  0  0  0  0  0  0  0  0
    1.9878   -3.3762    0.0000 H   0  0  0  0  0  0  0  0  0  0  0  0
    0.7132   -7.2993    0.0000 H   0  0  0  0  0  0  0  0  0  0  0  0
    1.8172   -8.5255    0.0000 H   0  0  0  0  0  0  0  0  0  0  0  0
  1  2  2  0  0  0  0
  3  2  1  4  0  0  0
  3  4  2  0  0  0  0
  4  5  1  0  0  0  0
  5  6  4  0  0  0  0
  6  7  4  0  0  0  0
  7  8  4  0  0  0  0
  8  9  4  0  0  0  0
  9 10  1  0  0  0  0
 10 11  2  0  0  0  0
 10 12  2  0  0  0  0
 10 13  1  0  0  0  0
 13 14  4  0  0  0  0
 14 15  4  0  0  0  0
 15 16  4  0  0  0  0
 16 17  4  0  0  0  0
 17 18  4  0  0  0  0
 18 19  4  0  0  0  0
 19 20  4  0  0  0  0
 20 21  4  0  0  0  0
 16 21  4  0  0  0  0
 13 21  4  0  0  0  0
  9 22  4  0  0  0  0
  5 22  4  0  0  0  0
  2 23  1  0  0  0  0
 23 24  1  0  0  0  0
  3 25  1  0  0  0  0
  4 26  1  0  0  0  0
  6 27  1  0  0  0  0
  7 28  1  0  0  0  0
  8 29  1  0  0  0  0
 14 30  1  0  0  0  0
 15 31  1  0  0  0  0
 17 32  1  0  0  0  0
 18 33  1  0  0  0  0
 20 34  1  0  0  0  0
 22 35  1  0  0  0  0
 23 36  1  0  0  0  0
 24 37  1  0  0  0  0
M  END
>  <Molecule ChEMBL ID>
CHEMBL3262725

>  <Compound Key>
10

>  <Active>
0

>  <StandardizerResult>
Dearomatize (ID: Dearomatize)
Clear Stereo (ID: ClearStereo)
Wedge Clean (ID: WedgeClean)
Mesomerize (ID: Mesomerize)
Tautomerize (ID: Tautomerize)
Aromatize (ID: Aromatize)
Add Explicit Hydrogens (ID: AddExplicitH)
Neutralize (ID: Neutralize)
Clean 2D (ID: Clean2D)


$$$$

  Mrv1551102232211292D          

 44 47  0  0  0  0            999 V2000
   -1.7499   -5.6315    0.0000 O   0  0  0  0  0  0  0  0  0  0  0  0
   -0.9429   -5.4600    0.0000 C   0  0  0  0  0  0  0  0  0  0  0  0
   -0.3909   -6.0731    0.0000 N   0  0  0  0  0  0  0  0  0  0  0  0
   -0.6459   -6.8577    0.0000 O   0  0  0  0  0  0  0  0  0  0  0  0
   -0.6880   -4.6754    0.0000 C   0  0  0  0  0  0  0  0  0  0  0  0
   -1.2400   -4.0623    0.0000 C   0  0  0  0  0  0  0  0  0  0  0  0
   -0.9851   -3.2777    0.0000 C   0  0  0  0  0  0  0  0  0  0  0  0
   -0.1781   -3.1061    0.0000 C   0  0  0  0  0  0  0  0  0  0  0  0
    0.0768   -2.3215    0.0000 C   0  0  0  0  0  0  0  0  0  0  0  0
   -0.4752   -1.7084    0.0000 O   0  0  0  0  0  0  0  0  0  0  0  0
    0.8838   -2.1500    0.0000 N   0  0  0  0  0  0  0  0  0  0  0  0
    1.1387   -1.3654    0.0000 C   0  0  0  0  0  0  0  0  0  0  0  0
    0.6538   -0.6979    0.0000 N   0  0  0  0  0  0  0  0  0  0  0  0
    1.1387   -0.0305    0.0000 N   0  0  0  0  0  0  0  0  0  0  0  0
    1.9233   -0.2854    0.0000 C   0  0  0  0  0  0  0  0  0  0  0  0
    2.6378    0.1271    0.0000 C   0  0  0  0  0  0  0  0  0  0  0  0
    3.3523   -0.2854    0.0000 C   0  0  0  0  0  0  0  0  0  0  0  0
    4.0668    0.1271    0.0000 C   0  0  0  0  0  0  0  0  0  0  0  0
    4.0668    0.9521    0.0000 C   0  0  0  0  0  0  0  0  0  0  0  0
    4.7812    1.3646    0.0000 C   0  0  0  0  0  0  0  0  0  0  0  0
    5.4957    0.9521    0.0000 C   0  0  0  0  0  0  0  0  0  0  0  0
    6.2102    1.3646    0.0000 Cl  0  0  0  0  0  0  0  0  0  0  0  0
    5.4957    0.1271    0.0000 C   0  0  0  0  0  0  0  0  0  0  0  0
    4.7812   -0.2854    0.0000 C   0  0  0  0  0  0  0  0  0  0  0  0
    3.3523   -1.1104    0.0000 C   0  0  0  0  0  0  0  0  0  0  0  0
    2.6378   -1.5229    0.0000 C   0  0  0  0  0  0  0  0  0  0  0  0
    1.9233   -1.1104    0.0000 C   0  0  0  0  0  0  0  0  0  0  0  0
    0.3739   -3.7192    0.0000 C   0  0  0  0  0  0  0  0  0  0  0  0
    0.1190   -4.5038    0.0000 C   0  0  0  0  0  0  0  0  0  0  0  0
    0.4161   -5.9016    0.0000 H   0  0  0  0  0  0  0  0  0  0  0  0
   -1.4528   -7.0292    0.0000 H   0  0  0  0  0  0  0  0  0  0  0  0
   -2.0470   -4.2338    0.0000 H   0  0  0  0  0  0  0  0  0  0  0  0
   -1.5371   -2.6646    0.0000 H   0  0  0  0  0  0  0  0  0  0  0  0
    1.4358   -2.7631    0.0000 H   0  0  0  0  0  0  0  0  0  0  0  0
   -0.1712   -0.6979    0.0000 H   0  0  0  0  0  0  0  0  0  0  0  0
    2.6378    0.9521    0.0000 H   0  0  0  0  0  0  0  0  0  0  0  0
    3.3523    1.3646    0.0000 H   0  0  0  0  0  0  0  0  0  0  0  0
    4.7812    2.1896    0.0000 H   0  0  0  0  0  0  0  0  0  0  0  0
    6.2102   -0.2854    0.0000 H   0  0  0  0  0  0  0  0  0  0  0  0
    4.7812   -1.1104    0.0000 H   0  0  0  0  0  0  0  0  0  0  0  0
    4.0668   -1.5229    0.0000 H   0  0  0  0  0  0  0  0  0  0  0  0
    2.6378   -2.3479    0.0000 H   0  0  0  0  0  0  0  0  0  0  0  0
    1.1809   -3.5477    0.0000 H   0  0  0  0  0  0  0  0  0  0  0  0
    0.6710   -5.1169    0.0000 H   0  0  0  0  0  0  0  0  0  0  0  0
  1  2  2  0  0  0  0
  2  3  1  0  0  0  0
  3  4  1  0  0  0  0
  2  5  1  0  0  0  0
  5  6  4  0  0  0  0
  6  7  4  0  0  0  0
  7  8  4  0  0  0  0
  8  9  1  0  0  0  0
  9 10  2  0  0  0  0
  9 11  1  0  0  0  0
 11 12  1  0  0  0  0
 12 13  4  0  0  0  0
 13 14  4  0  0  0  0
 14 15  4  0  0  0  0
 15 16  4  0  0  0  0
 16 17  4  0  0  0  0
 17 18  1  0  0  0  0
 18 19  4  0  0  0  0
 19 20  4  0  0  0  0
 20 21  4  0  0  0  0
 21 22  1  0  0  0  0
 21 23  4  0  0  0  0
 23 24  4  0  0  0  0
 18 24  4  0  0  0  0
 17 25  4  0  0  0  0
 25 26  4  0  0  0  0
 26 27  4  0  0  0  0
 12 27  4  0  0  0  0
 15 27  4  0  0  0  0
  8 28  4  0  0  0  0
 28 29  4  0  0  0  0
  5 29  4  0  0  0  0
  3 30  1  0  0  0  0
  4 31  1  0  0  0  0
  6 32  1  0  0  0  0
  7 33  1  0  0  0  0
 11 34  1  0  0  0  0
 13 35  1  0  0  0  0
 16 36  1  0  0  0  0
 19 37  1  0  0  0  0
 20 38  1  0  0  0  0
 23 39  1  0  0  0  0
 24 40  1  0  0  0  0
 25 41  1  0  0  0  0
 26 42  1  0  0  0  0
 28 43  1  0  0  0  0
 29 44  1  0  0  0  0
M  END
>  <Molecule ChEMBL ID>
CHEMBL4217088

>  <Compound Key>
7t

>  <Active>
0

>  <StandardizerResult>
Dearomatize (ID: Dearomatize)
Clear Stereo (ID: ClearStereo)
Wedge Clean (ID: WedgeClean)
Mesomerize (ID: Mesomerize)
Tautomerize (ID: Tautomerize)
Aromatize (ID: Aromatize)
Add Explicit Hydrogens (ID: AddExplicitH)
Neutralize (ID: Neutralize)
Clean 2D (ID: Clean2D)


$$$$

  Mrv1551102232211292D          

 44 47  0  0  0  0            999 V2000
   -1.7499   -5.6315    0.0000 O   0  0  0  0  0  0  0  0  0  0  0  0
   -0.9429   -5.4600    0.0000 C   0  0  0  0  0  0  0  0  0  0  0  0
   -0.3909   -6.0731    0.0000 N   0  0  0  0  0  0  0  0  0  0  0  0
   -0.6458   -6.8577    0.0000 O   0  0  0  0  0  0  0  0  0  0  0  0
   -0.6880   -4.6754    0.0000 C   0  0  0  0  0  0  0  0  0  0  0  0
   -1.2400   -4.0623    0.0000 C   0  0  0  0  0  0  0  0  0  0  0  0
   -0.9851   -3.2777    0.0000 C   0  0  0  0  0  0  0  0  0  0  0  0
   -0.1781   -3.1061    0.0000 C   0  0  0  0  0  0  0  0  0  0  0  0
    0.0768   -2.3215    0.0000 C   0  0  0  0  0  0  0  0  0  0  0  0
   -0.4752   -1.7084    0.0000 O   0  0  0  0  0  0  0  0  0  0  0  0
    0.8838   -2.1500    0.0000 N   0  0  0  0  0  0  0  0  0  0  0  0
    1.1387   -1.3654    0.0000 C   0  0  0  0  0  0  0  0  0  0  0  0
    0.6538   -0.6979    0.0000 N   0  0  0  0  0  0  0  0  0  0  0  0
    1.1387   -0.0305    0.0000 N   0  0  0  0  0  0  0  0  0  0  0  0
    1.9233   -0.2854    0.0000 C   0  0  0  0  0  0  0  0  0  0  0  0
    2.6378    0.1271    0.0000 C   0  0  0  0  0  0  0  0  0  0  0  0
    3.3523   -0.2854    0.0000 C   0  0  0  0  0  0  0  0  0  0  0  0
    4.0668    0.1271    0.0000 C   0  0  0  0  0  0  0  0  0  0  0  0
    4.0668    0.9521    0.0000 C   0  0  0  0  0  0  0  0  0  0  0  0
    4.7812    1.3646    0.0000 C   0  0  0  0  0  0  0  0  0  0  0  0
    4.7812    2.1896    0.0000 Cl  0  0  0  0  0  0  0  0  0  0  0  0
    5.4957    0.9521    0.0000 C   0  0  0  0  0  0  0  0  0  0  0  0
    5.4957    0.1271    0.0000 C   0  0  0  0  0  0  0  0  0  0  0  0
    6.2102   -0.2854    0.0000 Cl  0  0  0  0  0  0  0  0  0  0  0  0
    4.7812   -0.2854    0.0000 C   0  0  0  0  0  0  0  0  0  0  0  0
    3.3523   -1.1104    0.0000 C   0  0  0  0  0  0  0  0  0  0  0  0
    2.6378   -1.5229    0.0000 C   0  0  0  0  0  0  0  0  0  0  0  0
    1.9233   -1.1104    0.0000 C   0  0  0  0  0  0  0  0  0  0  0  0
    0.3739   -3.7192    0.0000 C   0  0  0  0  0  0  0  0  0  0  0  0
    0.1190   -4.5038    0.0000 C   0  0  0  0  0  0  0  0  0  0  0  0
    0.4161   -5.9016    0.0000 H   0  0  0  0  0  0  0  0  0  0  0  0
   -1.4528   -7.0292    0.0000 H   0  0  0  0  0  0  0  0  0  0  0  0
   -2.0470   -4.2338    0.0000 H   0  0  0  0  0  0  0  0  0  0  0  0
   -1.5371   -2.6646    0.0000 H   0  0  0  0  0  0  0  0  0  0  0  0
    1.4358   -2.7631    0.0000 H   0  0  0  0  0  0  0  0  0  0  0  0
   -0.1712   -0.6979    0.0000 H   0  0  0  0  0  0  0  0  0  0  0  0
    2.6378    0.9521    0.0000 H   0  0  0  0  0  0  0  0  0  0  0  0
    3.3523    1.3646    0.0000 H   0  0  0  0  0  0  0  0  0  0  0  0
    6.2102    1.3646    0.0000 H   0  0  0  0  0  0  0  0  0  0  0  0
    4.7812   -1.1104    0.0000 H   0  0  0  0  0  0  0  0  0  0  0  0
    4.0668   -1.5229    0.0000 H   0  0  0  0  0  0  0  0  0  0  0  0
    2.6378   -2.3479    0.0000 H   0  0  0  0  0  0  0  0  0  0  0  0
    1.1809   -3.5477    0.0000 H   0  0  0  0  0  0  0  0  0  0  0  0
    0.6710   -5.1169    0.0000 H   0  0  0  0  0  0  0  0  0  0  0  0
  1  2  2  0  0  0  0
  2  3  1  0  0  0  0
  3  4  1  0  0  0  0
  2  5  1  0  0  0  0
  5  6  4  0  0  0  0
  6  7  4  0  0  0  0
  7  8  4  0  0  0  0
  8  9  1  0  0  0  0
  9 10  2  0  0  0  0
  9 11  1  0  0  0  0
 11 12  1  0  0  0  0
 12 13  4  0  0  0  0
 13 14  4  0  0  0  0
 14 15  4  0  0  0  0
 15 16  4  0  0  0  0
 16 17  4  0  0  0  0
 17 18  1  0  0  0  0
 18 19  4  0  0  0  0
 19 20  4  0  0  0  0
 20 21  1  0  0  0  0
 20 22  4  0  0  0  0
 22 23  4  0  0  0  0
 23 24  1  0  0  0  0
 23 25  4  0  0  0  0
 18 25  4  0  0  0  0
 17 26  4  0  0  0  0
 26 27  4  0  0  0  0
 27 28  4  0  0  0  0
 12 28  4  0  0  0  0
 15 28  4  0  0  0  0
  8 29  4  0  0  0  0
 29 30  4  0  0  0  0
  5 30  4  0  0  0  0
  3 31  1  0  0  0  0
  4 32  1  0  0  0  0
  6 33  1  0  0  0  0
  7 34  1  0  0  0  0
 11 35  1  0  0  0  0
 13 36  1  0  0  0  0
 16 37  1  0  0  0  0
 19 38  1  0  0  0  0
 22 39  1  0  0  0  0
 25 40  1  0  0  0  0
 26 41  1  0  0  0  0
 27 42  1  0  0  0  0
 29 43  1  0  0  0  0
 30 44  1  0  0  0  0
M  END
>  <Molecule ChEMBL ID>
CHEMBL4203935

>  <Compound Key>
7o

>  <Active>
0

>  <StandardizerResult>
Dearomatize (ID: Dearomatize)
Clear Stereo (ID: ClearStereo)
Wedge Clean (ID: WedgeClean)
Mesomerize (ID: Mesomerize)
Tautomerize (ID: Tautomerize)
Aromatize (ID: Aromatize)
Add Explicit Hydrogens (ID: AddExplicitH)
Neutralize (ID: Neutralize)
Clean 2D (ID: Clean2D)


$$$$

  Mrv1551102232211292D          

 54 57  0  0  0  0            999 V2000
    6.2102    6.0604    0.0000 C   0  0  0  0  0  0  0  0  0  0  0  0
    5.4957    5.6479    0.0000 C   0  0  0  0  0  0  0  0  0  0  0  0
    5.4957    4.8229    0.0000 C   0  0  0  0  0  0  0  0  0  0  0  0
    4.7812    4.4104    0.0000 O   0  0  0  0  0  0  0  0  0  0  0  0
    4.7812    3.5854    0.0000 C   0  0  0  0  0  0  0  0  0  0  0  0
    5.4957    3.1729    0.0000 C   0  0  0  0  0  0  0  0  0  0  0  0
    5.4957    2.3479    0.0000 C   0  0  0  0  0  0  0  0  0  0  0  0
    4.7812    1.9354    0.0000 C   0  0  0  0  0  0  0  0  0  0  0  0
    4.0668    2.3479    0.0000 C   0  0  0  0  0  0  0  0  0  0  0  0
    3.3523    1.9354    0.0000 C   0  0  0  0  0  0  0  0  0  0  0  0
    3.3523    1.1104    0.0000 C   0  0  0  0  0  0  0  0  0  0  0  0
    2.6378    0.6979    0.0000 C   0  0  0  0  0  0  0  0  0  0  0  0
    1.9233    1.1104    0.0000 C   0  0  0  0  0  0  0  0  0  0  0  0
    1.1387    0.8555    0.0000 C   0  0  0  0  0  0  0  0  0  0  0  0
    0.8838    0.0709    0.0000 N   0  0  0  0  0  0  0  0  0  0  0  0
    1.4358   -0.5422    0.0000 C   0  0  0  0  0  0  0  0  0  0  0  0
    2.2428   -0.3707    0.0000 O   0  0  0  0  0  0  0  0  0  0  0  0
    1.1809   -1.3269    0.0000 C   0  0  0  0  0  0  0  0  0  0  0  0
    1.7329   -1.9400    0.0000 C   0  0  0  0  0  0  0  0  0  0  0  0
    1.4780   -2.7246    0.0000 C   0  0  0  0  0  0  0  0  0  0  0  0
    0.6710   -2.8961    0.0000 C   0  0  0  0  0  0  0  0  0  0  0  0
    0.4161   -3.6807    0.0000 C   0  0  0  0  0  0  0  0  0  0  0  0
    0.9681   -4.2938    0.0000 O   0  0  0  0  0  0  0  0  0  0  0  0
   -0.3909   -3.8523    0.0000 N   0  0  0  0  0  0  0  0  0  0  0  0
   -0.6458   -4.6369    0.0000 O   0  0  0  0  0  0  0  0  0  0  0  0
    0.1190   -2.2830    0.0000 C   0  0  0  0  0  0  0  0  0  0  0  0
    0.3739   -1.4984    0.0000 C   0  0  0  0  0  0  0  0  0  0  0  0
    0.6538    1.5229    0.0000 N   0  0  0  0  0  0  0  0  0  0  0  0
    1.1387    2.1904    0.0000 N   0  0  0  0  0  0  0  0  0  0  0  0
    1.9233    1.9354    0.0000 C   0  0  0  0  0  0  0  0  0  0  0  0
    2.6378    2.3479    0.0000 C   0  0  0  0  0  0  0  0  0  0  0  0
    4.0668    3.1729    0.0000 C   0  0  0  0  0  0  0  0  0  0  0  0
    6.6227    5.3459    0.0000 H   0  0  0  0  0  0  0  0  0  0  0  0
    6.9246    6.4729    0.0000 H   0  0  0  0  0  0  0  0  0  0  0  0
    5.7977    6.7749    0.0000 H   0  0  0  0  0  0  0  0  0  0  0  0
    5.0424    6.3372    0.0000 H   0  0  0  0  0  0  0  0  0  0  0  0
    4.6721    5.6959    0.0000 H   0  0  0  0  0  0  0  0  0  0  0  0
    5.9490    4.1336    0.0000 H   0  0  0  0  0  0  0  0  0  0  0  0
    6.3193    4.7749    0.0000 H   0  0  0  0  0  0  0  0  0  0  0  0
    6.2102    3.5854    0.0000 H   0  0  0  0  0  0  0  0  0  0  0  0
    6.2102    1.9354    0.0000 H   0  0  0  0  0  0  0  0  0  0  0  0
    4.7812    1.1104    0.0000 H   0  0  0  0  0  0  0  0  0  0  0  0
    4.0668    0.6979    0.0000 H   0  0  0  0  0  0  0  0  0  0  0  0
    2.6378   -0.1271    0.0000 H   0  0  0  0  0  0  0  0  0  0  0  0
    0.0768   -0.1007    0.0000 H   0  0  0  0  0  0  0  0  0  0  0  0
    2.5399   -1.7684    0.0000 H   0  0  0  0  0  0  0  0  0  0  0  0
    2.0300   -3.3377    0.0000 H   0  0  0  0  0  0  0  0  0  0  0  0
   -0.9429   -3.2392    0.0000 H   0  0  0  0  0  0  0  0  0  0  0  0
   -1.4528   -4.8084    0.0000 H   0  0  0  0  0  0  0  0  0  0  0  0
   -0.6880   -2.4545    0.0000 H   0  0  0  0  0  0  0  0  0  0  0  0
   -0.1781   -0.8853    0.0000 H   0  0  0  0  0  0  0  0  0  0  0  0
   -0.1712    1.5229    0.0000 H   0  0  0  0  0  0  0  0  0  0  0  0
    2.6378    3.1729    0.0000 H   0  0  0  0  0  0  0  0  0  0  0  0
    3.3523    3.5854    0.0000 H   0  0  0  0  0  0  0  0  0  0  0  0
  1  2  1  0  0  0  0
  2  3  1  0  0  0  0
  3  4  1  0  0  0  0
  4  5  1  0  0  0  0
  5  6  4  0  0  0  0
  6  7  4  0  0  0  0
  7  8  4  0  0  0  0
  8  9  4  0  0  0  0
  9 10  1  0  0  0  0
 10 11  4  0  0  0  0
 11 12  4  0  0  0  0
 12 13  4  0  0  0  0
 13 14  4  0  0  0  0
 14 15  1  0  0  0  0
 15 16  1  0  0  0  0
 16 17  2  0  0  0  0
 16 18  1  0  0  0  0
 18 19  4  0  0  0  0
 19 20  4  0  0  0  0
 20 21  4  0  0  0  0
 21 22  1  0  0  0  0
 22 23  2  0  0  0  0
 22 24  1  0  0  0  0
 24 25  1  0  0  0  0
 21 26  4  0  0  0  0
 26 27  4  0  0  0  0
 18 27  4  0  0  0  0
 14 28  4  0  0  0  0
 28 29  4  0  0  0  0
 29 30  4  0  0  0  0
 13 30  4  0  0  0  0
 30 31  4  0  0  0  0
 10 31  4  0  0  0  0
  9 32  4  0  0  0  0
  5 32  4  0  0  0  0
  1 33  1  0  0  0  0
  1 34  1  0  0  0  0
  1 35  1  0  0  0  0
  2 36  1  0  0  0  0
  2 37  1  0  0  0  0
  3 38  1  0  0  0  0
  3 39  1  0  0  0  0
  6 40  1  0  0  0  0
  7 41  1  0  0  0  0
  8 42  1  0  0  0  0
 11 43  1  0  0  0  0
 12 44  1  0  0  0  0
 15 45  1  0  0  0  0
 19 46  1  0  0  0  0
 20 47  1  0  0  0  0
 24 48  1  0  0  0  0
 25 49  1  0  0  0  0
 26 50  1  0  0  0  0
 27 51  1  0  0  0  0
 28 52  1  0  0  0  0
 31 53  1  0  0  0  0
 32 54  1  0  0  0  0
M  END
>  <Molecule ChEMBL ID>
CHEMBL4202659

>  <Compound Key>
7w

>  <Active>
0

>  <StandardizerResult>
Dearomatize (ID: Dearomatize)
Clear Stereo (ID: ClearStereo)
Wedge Clean (ID: WedgeClean)
Mesomerize (ID: Mesomerize)
Tautomerize (ID: Tautomerize)
Aromatize (ID: Aromatize)
Add Explicit Hydrogens (ID: AddExplicitH)
Neutralize (ID: Neutralize)
Clean 2D (ID: Clean2D)


$$$$

  Mrv1551102232211292D          

 39 40  0  0  0  0            999 V2000
    4.2868   -4.9500    0.0000 O   0  0  0  0  0  0  0  0  0  0  0  0
    4.2868   -4.1250    0.0000 C   0  0  0  0  0  0  0  0  0  0  0  0
    3.5724   -3.7125    0.0000 C   0  0  0  0  0  0  0  0  0  0  0  0
    2.8579   -4.1250    0.0000 C   0  0  0  0  0  0  0  0  0  0  0  0
    2.1434   -3.7125    0.0000 C   0  0  0  0  0  0  0  0  0  0  0  0
    1.4289   -4.1250    0.0000 C   0  0  0  0  0  0  0  0  0  0  0  0
    0.7145   -3.7125    0.0000 C   0  0  0  0  0  0  0  0  0  0  0  0
   -0.0392   -4.0481    0.0000 C   0  0  0  0  0  0  0  0  0  0  0  0
   -0.5912   -3.4350    0.0000 C   0  0  0  0  0  0  0  0  0  0  0  0
   -1.4117   -3.5212    0.0000 C   0  0  0  0  0  0  0  0  0  0  0  0
   -1.7473   -4.2749    0.0000 O   0  0  0  0  0  0  0  0  0  0  0  0
   -1.8966   -2.8538    0.0000 N   0  0  0  0  0  0  0  0  0  0  0  0
   -2.7171   -2.9400    0.0000 O   0  0  0  0  0  0  0  0  0  0  0  0
   -0.1787   -2.7205    0.0000 N   0  0  0  0  0  0  0  0  0  0  0  0
    0.6282   -2.8920    0.0000 O   0  0  0  0  0  0  0  0  0  0  0  0
    5.0013   -3.7125    0.0000 N   0  0  0  0  0  0  0  0  0  0  0  0
    5.7158   -4.1250    0.0000 C   0  0  0  0  0  0  0  0  0  0  0  0
    6.4302   -3.7125    0.0000 C   0  0  0  0  0  0  0  0  0  0  0  0
    7.1447   -4.1250    0.0000 C   0  0  0  0  0  0  0  0  0  0  0  0
    7.1447   -4.9500    0.0000 C   0  0  0  0  0  0  0  0  0  0  0  0
    6.4302   -5.3625    0.0000 C   0  0  0  0  0  0  0  0  0  0  0  0
    5.7158   -4.9500    0.0000 C   0  0  0  0  0  0  0  0  0  0  0  0
    3.9426   -2.9753    0.0000 H   0  0  0  0  0  0  0  0  0  0  0  0
    3.2021   -2.9753    0.0000 H   0  0  0  0  0  0  0  0  0  0  0  0
    2.4876   -4.8623    0.0000 H   0  0  0  0  0  0  0  0  0  0  0  0
    3.2281   -4.8623    0.0000 H   0  0  0  0  0  0  0  0  0  0  0  0
    2.5137   -2.9753    0.0000 H   0  0  0  0  0  0  0  0  0  0  0  0
    1.7732   -2.9753    0.0000 H   0  0  0  0  0  0  0  0  0  0  0  0
    1.0587   -4.8623    0.0000 H   0  0  0  0  0  0  0  0  0  0  0  0
    1.7992   -4.8623    0.0000 H   0  0  0  0  0  0  0  0  0  0  0  0
   -0.2107   -4.8550    0.0000 H   0  0  0  0  0  0  0  0  0  0  0  0
   -1.5611   -2.1001    0.0000 H   0  0  0  0  0  0  0  0  0  0  0  0
   -3.2020   -2.2726    0.0000 H   0  0  0  0  0  0  0  0  0  0  0  0
    5.0013   -2.8875    0.0000 H   0  0  0  0  0  0  0  0  0  0  0  0
    6.4302   -2.8875    0.0000 H   0  0  0  0  0  0  0  0  0  0  0  0
    7.8592   -3.7125    0.0000 H   0  0  0  0  0  0  0  0  0  0  0  0
    7.8592   -5.3625    0.0000 H   0  0  0  0  0  0  0  0  0  0  0  0
    6.4302   -6.1875    0.0000 H   0  0  0  0  0  0  0  0  0  0  0  0
    5.0013   -5.3625    0.0000 H   0  0  0  0  0  0  0  0  0  0  0  0
  1  2  2  0  0  0  0
  2  3  1  0  0  0  0
  3  4  1  0  0  0  0
  4  5  1  0  0  0  0
  5  6  1  0  0  0  0
  6  7  1  0  0  0  0
  7  8  4  0  0  0  0
  8  9  4  0  0  0  0
  9 10  1  0  0  0  0
 10 11  2  0  0  0  0
 10 12  1  0  0  0  0
 12 13  1  0  0  0  0
  9 14  4  0  0  0  0
 14 15  4  0  0  0  0
  7 15  4  0  0  0  0
  2 16  1  0  0  0  0
 16 17  1  0  0  0  0
 17 18  4  0  0  0  0
 18 19  4  0  0  0  0
 19 20  4  0  0  0  0
 20 21  4  0  0  0  0
 21 22  4  0  0  0  0
 17 22  4  0  0  0  0
  3 23  1  0  0  0  0
  3 24  1  0  0  0  0
  4 25  1  0  0  0  0
  4 26  1  0  0  0  0
  5 27  1  0  0  0  0
  5 28  1  0  0  0  0
  6 29  1  0  0  0  0
  6 30  1  0  0  0  0
  8 31  1  0  0  0  0
 12 32  1  0  0  0  0
 13 33  1  0  0  0  0
 16 34  1  0  0  0  0
 18 35  1  0  0  0  0
 19 36  1  0  0  0  0
 20 37  1  0  0  0  0
 21 38  1  0  0  0  0
 22 39  1  0  0  0  0
M  END
>  <Molecule ChEMBL ID>
CHEMBL1243261

>  <Compound Key>
2

>  <Active>
0

>  <StandardizerResult>
Dearomatize (ID: Dearomatize)
Clear Stereo (ID: ClearStereo)
Wedge Clean (ID: WedgeClean)
Mesomerize (ID: Mesomerize)
Tautomerize (ID: Tautomerize)
Aromatize (ID: Aromatize)
Add Explicit Hydrogens (ID: AddExplicitH)
Neutralize (ID: Neutralize)
Clean 2D (ID: Clean2D)


$$$$

  Mrv1551102232211292D          

 41 42  0  0  0  0            999 V2000
    4.2763   -4.9796    0.0000 O   0  0  0  0  0  0  0  0  0  0  0  0
    4.2763   -4.1546    0.0000 C   0  0  0  0  0  0  0  0  0  0  0  0
    3.5618   -3.7421    0.0000 C   0  0  0  0  0  0  0  0  0  0  0  0
    2.8473   -4.1546    0.0000 C   0  0  0  0  0  0  0  0  0  0  0  0
    2.1329   -3.7421    0.0000 C   0  0  0  0  0  0  0  0  0  0  0  0
    1.4184   -4.1546    0.0000 C   0  0  0  0  0  0  0  0  0  0  0  0
    0.7039   -3.7421    0.0000 C   0  0  0  0  0  0  0  0  0  0  0  0
   -0.0498   -4.0777    0.0000 C   0  0  0  0  0  0  0  0  0  0  0  0
   -0.6018   -3.4646    0.0000 C   0  0  0  0  0  0  0  0  0  0  0  0
   -1.4223   -3.5508    0.0000 C   0  0  0  0  0  0  0  0  0  0  0  0
   -1.7578   -4.3045    0.0000 O   0  0  0  0  0  0  0  0  0  0  0  0
   -1.9072   -2.8834    0.0000 N   0  0  0  0  0  0  0  0  0  0  0  0
   -2.7277   -2.9696    0.0000 O   0  0  0  0  0  0  0  0  0  0  0  0
   -0.1893   -2.7501    0.0000 N   0  0  0  0  0  0  0  0  0  0  0  0
    0.6177   -2.9217    0.0000 O   0  0  0  0  0  0  0  0  0  0  0  0
    4.9907   -3.7421    0.0000 N   0  0  0  0  0  0  0  0  0  0  0  0
    5.7052   -4.1546    0.0000 C   0  0  0  0  0  0  0  0  0  0  0  0
    6.4197   -3.7421    0.0000 C   0  0  0  0  0  0  0  0  0  0  0  0
    7.1342   -4.1546    0.0000 C   0  0  0  0  0  0  0  0  0  0  0  0
    7.1342   -4.9796    0.0000 C   0  0  0  0  0  0  0  0  0  0  0  0
    6.4197   -5.3921    0.0000 C   0  0  0  0  0  0  0  0  0  0  0  0
    5.7052   -4.9796    0.0000 C   0  0  0  0  0  0  0  0  0  0  0  0
    3.9321   -3.0049    0.0000 H   0  0  0  0  0  0  0  0  0  0  0  0
    3.1915   -3.0049    0.0000 H   0  0  0  0  0  0  0  0  0  0  0  0
    2.4771   -4.8919    0.0000 H   0  0  0  0  0  0  0  0  0  0  0  0
    3.2176   -4.8919    0.0000 H   0  0  0  0  0  0  0  0  0  0  0  0
    2.5031   -3.0049    0.0000 H   0  0  0  0  0  0  0  0  0  0  0  0
    1.7626   -3.0049    0.0000 H   0  0  0  0  0  0  0  0  0  0  0  0
    1.0481   -4.8919    0.0000 H   0  0  0  0  0  0  0  0  0  0  0  0
    1.7886   -4.8919    0.0000 H   0  0  0  0  0  0  0  0  0  0  0  0
    1.3958   -3.2928    0.0000 H   0  0  0  0  0  0  0  0  0  0  0  0
   -0.5801   -4.7097    0.0000 H   0  0  0  0  0  0  0  0  0  0  0  0
    0.1776   -4.8707    0.0000 H   0  0  0  0  0  0  0  0  0  0  0  0
   -1.5716   -2.1297    0.0000 H   0  0  0  0  0  0  0  0  0  0  0  0
   -3.2126   -2.3022    0.0000 H   0  0  0  0  0  0  0  0  0  0  0  0
    4.9907   -2.9171    0.0000 H   0  0  0  0  0  0  0  0  0  0  0  0
    6.4197   -2.9171    0.0000 H   0  0  0  0  0  0  0  0  0  0  0  0
    7.8486   -3.7421    0.0000 H   0  0  0  0  0  0  0  0  0  0  0  0
    7.8486   -5.3921    0.0000 H   0  0  0  0  0  0  0  0  0  0  0  0
    6.4197   -6.2171    0.0000 H   0  0  0  0  0  0  0  0  0  0  0  0
    4.9907   -5.3921    0.0000 H   0  0  0  0  0  0  0  0  0  0  0  0
  1  2  2  0  0  0  0
  2  3  1  0  0  0  0
  3  4  1  0  0  0  0
  4  5  1  0  0  0  0
  5  6  1  0  0  0  0
  6  7  1  0  0  0  0
  7  8  1  0  0  0  0
  8  9  1  0  0  0  0
  9 10  1  0  0  0  0
 10 11  2  0  0  0  0
 10 12  1  0  0  0  0
 12 13  1  0  0  0  0
  9 14  2  0  0  0  0
 14 15  1  0  0  0  0
  7 15  1  0  0  0  0
  2 16  1  0  0  0  0
 16 17  1  0  0  0  0
 17 18  4  0  0  0  0
 18 19  4  0  0  0  0
 19 20  4  0  0  0  0
 20 21  4  0  0  0  0
 21 22  4  0  0  0  0
 17 22  4  0  0  0  0
  3 23  1  0  0  0  0
  3 24  1  0  0  0  0
  4 25  1  0  0  0  0
  4 26  1  0  0  0  0
  5 27  1  0  0  0  0
  5 28  1  0  0  0  0
  6 29  1  0  0  0  0
  6 30  1  0  0  0  0
  7 31  1  0  0  0  0
  8 32  1  0  0  0  0
  8 33  1  0  0  0  0
 12 34  1  0  0  0  0
 13 35  1  0  0  0  0
 16 36  1  0  0  0  0
 18 37  1  0  0  0  0
 19 38  1  0  0  0  0
 20 39  1  0  0  0  0
 21 40  1  0  0  0  0
 22 41  1  0  0  0  0
M  END
>  <Molecule ChEMBL ID>
CHEMBL1243289

>  <Compound Key>
4

>  <Active>
0

>  <StandardizerResult>
Dearomatize (ID: Dearomatize)
Clear Stereo (ID: ClearStereo)
Wedge Clean (ID: WedgeClean)
Mesomerize (ID: Mesomerize)
Tautomerize (ID: Tautomerize)
Aromatize (ID: Aromatize)
Add Explicit Hydrogens (ID: AddExplicitH)
Neutralize (ID: Neutralize)
Clean 2D (ID: Clean2D)


$$$$

  Mrv1551102232211292D          

 49 51  0  0  0  0            999 V2000
    4.2868   -7.4250    0.0000 O   0  0  0  0  0  0  0  0  0  0  0  0
    4.2868   -6.6000    0.0000 C   0  0  0  0  0  0  0  0  0  0  0  0
    3.5724   -6.1875    0.0000 C   0  0  0  0  0  0  0  0  0  0  0  0
    2.8579   -6.6000    0.0000 C   0  0  0  0  0  0  0  0  0  0  0  0
    2.1434   -6.1875    0.0000 C   0  0  0  0  0  0  0  0  0  0  0  0
    1.4289   -6.6000    0.0000 C   0  0  0  0  0  0  0  0  0  0  0  0
    0.7145   -6.1875    0.0000 C   0  0  0  0  0  0  0  0  0  0  0  0
   -0.0392   -6.5231    0.0000 C   0  0  0  0  0  0  0  0  0  0  0  0
   -0.5912   -5.9100    0.0000 C   0  0  0  0  0  0  0  0  0  0  0  0
   -1.4117   -5.9962    0.0000 C   0  0  0  0  0  0  0  0  0  0  0  0
   -1.7473   -6.7499    0.0000 O   0  0  0  0  0  0  0  0  0  0  0  0
   -1.8966   -5.3288    0.0000 N   0  0  0  0  0  0  0  0  0  0  0  0
   -2.7171   -5.4150    0.0000 O   0  0  0  0  0  0  0  0  0  0  0  0
   -0.1787   -5.1955    0.0000 N   0  0  0  0  0  0  0  0  0  0  0  0
    0.6282   -5.3670    0.0000 O   0  0  0  0  0  0  0  0  0  0  0  0
    5.0013   -6.1875    0.0000 N   0  0  0  0  0  0  0  0  0  0  0  0
    5.7158   -6.6000    0.0000 C   0  0  0  0  0  0  0  0  0  0  0  0
    6.4302   -6.1875    0.0000 C   0  0  0  0  0  0  0  0  0  0  0  0
    7.1447   -6.6000    0.0000 C   0  0  0  0  0  0  0  0  0  0  0  0
    7.1447   -7.4250    0.0000 C   0  0  0  0  0  0  0  0  0  0  0  0
    7.8592   -7.8375    0.0000 C   0  0  0  0  0  0  0  0  0  0  0  0
    8.5737   -7.4250    0.0000 C   0  0  0  0  0  0  0  0  0  0  0  0
    9.2881   -7.8375    0.0000 C   0  0  0  0  0  0  0  0  0  0  0  0
    9.2881   -8.6625    0.0000 C   0  0  0  0  0  0  0  0  0  0  0  0
    8.5737   -9.0750    0.0000 C   0  0  0  0  0  0  0  0  0  0  0  0
    7.8592   -8.6625    0.0000 C   0  0  0  0  0  0  0  0  0  0  0  0
    6.4302   -7.8375    0.0000 C   0  0  0  0  0  0  0  0  0  0  0  0
    5.7158   -7.4250    0.0000 C   0  0  0  0  0  0  0  0  0  0  0  0
    3.9426   -5.4503    0.0000 H   0  0  0  0  0  0  0  0  0  0  0  0
    3.2021   -5.4503    0.0000 H   0  0  0  0  0  0  0  0  0  0  0  0
    2.4876   -7.3373    0.0000 H   0  0  0  0  0  0  0  0  0  0  0  0
    3.2281   -7.3373    0.0000 H   0  0  0  0  0  0  0  0  0  0  0  0
    2.5137   -5.4503    0.0000 H   0  0  0  0  0  0  0  0  0  0  0  0
    1.7732   -5.4503    0.0000 H   0  0  0  0  0  0  0  0  0  0  0  0
    1.0587   -7.3373    0.0000 H   0  0  0  0  0  0  0  0  0  0  0  0
    1.7992   -7.3373    0.0000 H   0  0  0  0  0  0  0  0  0  0  0  0
   -0.2107   -7.3300    0.0000 H   0  0  0  0  0  0  0  0  0  0  0  0
   -1.5611   -4.5751    0.0000 H   0  0  0  0  0  0  0  0  0  0  0  0
   -3.2020   -4.7476    0.0000 H   0  0  0  0  0  0  0  0  0  0  0  0
    5.0013   -5.3625    0.0000 H   0  0  0  0  0  0  0  0  0  0  0  0
    6.4302   -5.3625    0.0000 H   0  0  0  0  0  0  0  0  0  0  0  0
    7.8592   -6.1875    0.0000 H   0  0  0  0  0  0  0  0  0  0  0  0
    8.5737   -6.6000    0.0000 H   0  0  0  0  0  0  0  0  0  0  0  0
   10.0026   -7.4250    0.0000 H   0  0  0  0  0  0  0  0  0  0  0  0
   10.0026   -9.0750    0.0000 H   0  0  0  0  0  0  0  0  0  0  0  0
    8.5737   -9.9000    0.0000 H   0  0  0  0  0  0  0  0  0  0  0  0
    7.1447   -9.0750    0.0000 H   0  0  0  0  0  0  0  0  0  0  0  0
    6.4302   -8.6625    0.0000 H   0  0  0  0  0  0  0  0  0  0  0  0
    5.0013   -7.8375    0.0000 H   0  0  0  0  0  0  0  0  0  0  0  0
  1  2  2  0  0  0  0
  2  3  1  0  0  0  0
  3  4  1  0  0  0  0
  4  5  1  0  0  0  0
  5  6  1  0  0  0  0
  6  7  1  0  0  0  0
  7  8  4  0  0  0  0
  8  9  4  0  0  0  0
  9 10  1  0  0  0  0
 10 11  2  0  0  0  0
 10 12  1  0  0  0  0
 12 13  1  0  0  0  0
  9 14  4  0  0  0  0
 14 15  4  0  0  0  0
  7 15  4  0  0  0  0
  2 16  1  0  0  0  0
 16 17  1  0  0  0  0
 17 18  4  0  0  0  0
 18 19  4  0  0  0  0
 19 20  4  0  0  0  0
 20 21  1  0  0  0  0
 21 22  4  0  0  0  0
 22 23  4  0  0  0  0
 23 24  4  0  0  0  0
 24 25  4  0  0  0  0
 25 26  4  0  0  0  0
 21 26  4  0  0  0  0
 20 27  4  0  0  0  0
 27 28  4  0  0  0  0
 17 28  4  0  0  0  0
  3 29  1  0  0  0  0
  3 30  1  0  0  0  0
  4 31  1  0  0  0  0
  4 32  1  0  0  0  0
  5 33  1  0  0  0  0
  5 34  1  0  0  0  0
  6 35  1  0  0  0  0
  6 36  1  0  0  0  0
  8 37  1  0  0  0  0
 12 38  1  0  0  0  0
 13 39  1  0  0  0  0
 16 40  1  0  0  0  0
 18 41  1  0  0  0  0
 19 42  1  0  0  0  0
 22 43  1  0  0  0  0
 23 44  1  0  0  0  0
 24 45  1  0  0  0  0
 25 46  1  0  0  0  0
 26 47  1  0  0  0  0
 27 48  1  0  0  0  0
 28 49  1  0  0  0  0
M  END
>  <Molecule ChEMBL ID>
CHEMBL468527

>  <Compound Key>
12

>  <Active>
0

>  <StandardizerResult>
Dearomatize (ID: Dearomatize)
Clear Stereo (ID: ClearStereo)
Wedge Clean (ID: WedgeClean)
Mesomerize (ID: Mesomerize)
Tautomerize (ID: Tautomerize)
Aromatize (ID: Aromatize)
Add Explicit Hydrogens (ID: AddExplicitH)
Neutralize (ID: Neutralize)
Clean 2D (ID: Clean2D)


$$$$

  Mrv1551102232211292D          

 67 70  0  0  0  0            999 V2000
   -5.4492   -5.9950    0.0000 C   0  0  0  0  0  0  0  0  0  0  0  0
   -4.9643   -5.3276    0.0000 C   0  0  0  0  0  0  0  0  0  0  0  0
   -4.2969   -5.8125    0.0000 C   0  0  0  0  0  0  0  0  0  0  0  0
   -5.6318   -4.8426    0.0000 C   0  0  0  0  0  0  0  0  0  0  0  0
   -4.4794   -4.6601    0.0000 O   0  0  0  0  0  0  0  0  0  0  0  0
   -3.6589   -4.7464    0.0000 C   0  0  0  0  0  0  0  0  0  0  0  0
   -3.3234   -5.5000    0.0000 O   0  0  0  0  0  0  0  0  0  0  0  0
   -3.1740   -4.0789    0.0000 N   0  0  0  0  0  0  0  0  0  0  0  0
   -2.3535   -4.1652    0.0000 C   0  0  0  0  0  0  0  0  0  0  0  0
   -1.8686   -3.4977    0.0000 C   0  0  0  0  0  0  0  0  0  0  0  0
   -1.0481   -3.5840    0.0000 C   0  0  0  0  0  0  0  0  0  0  0  0
   -0.7126   -4.3376    0.0000 C   0  0  0  0  0  0  0  0  0  0  0  0
    0.1079   -4.4239    0.0000 C   0  0  0  0  0  0  0  0  0  0  0  0
    0.6600   -3.8108    0.0000 C   0  0  0  0  0  0  0  0  0  0  0  0
    1.4136   -4.1463    0.0000 C   0  0  0  0  0  0  0  0  0  0  0  0
    2.1281   -3.7338    0.0000 C   0  0  0  0  0  0  0  0  0  0  0  0
    2.1281   -2.9088    0.0000 O   0  0  0  0  0  0  0  0  0  0  0  0
    2.8426   -4.1463    0.0000 N   0  0  0  0  0  0  0  0  0  0  0  0
    3.5570   -3.7338    0.0000 C   0  0  0  0  0  0  0  0  0  0  0  0
    4.2715   -4.1463    0.0000 C   0  0  0  0  0  0  0  0  0  0  0  0
    4.2715   -4.9713    0.0000 O   0  0  0  0  0  0  0  0  0  0  0  0
    4.9860   -3.7338    0.0000 N   0  0  0  0  0  0  0  0  0  0  0  0
    5.7005   -4.1463    0.0000 C   0  0  0  0  0  0  0  0  0  0  0  0
    6.4149   -3.7338    0.0000 C   0  0  0  0  0  0  0  0  0  0  0  0
    7.1294   -4.1463    0.0000 C   0  0  0  0  0  0  0  0  0  0  0  0
    7.1294   -4.9713    0.0000 C   0  0  0  0  0  0  0  0  0  0  0  0
    7.8439   -5.3838    0.0000 C   0  0  0  0  0  0  0  0  0  0  0  0
    8.5975   -5.0483    0.0000 C   0  0  0  0  0  0  0  0  0  0  0  0
    9.1496   -5.6614    0.0000 C   0  0  0  0  0  0  0  0  0  0  0  0
    9.9701   -5.5751    0.0000 C   0  0  0  0  0  0  0  0  0  0  0  0
   10.3056   -4.8215    0.0000 O   0  0  0  0  0  0  0  0  0  0  0  0
   10.4550   -6.2426    0.0000 N   0  0  0  0  0  0  0  0  0  0  0  0
   11.2755   -6.1563    0.0000 O   0  0  0  0  0  0  0  0  0  0  0  0
    8.7371   -6.3758    0.0000 N   0  0  0  0  0  0  0  0  0  0  0  0
    7.9301   -6.2043    0.0000 O   0  0  0  0  0  0  0  0  0  0  0  0
    6.4149   -5.3838    0.0000 C   0  0  0  0  0  0  0  0  0  0  0  0
    5.7005   -4.9713    0.0000 C   0  0  0  0  0  0  0  0  0  0  0  0
    1.3274   -4.9668    0.0000 N   0  0  0  0  0  0  0  0  0  0  0  0
    0.5204   -5.1383    0.0000 O   0  0  0  0  0  0  0  0  0  0  0  0
   -1.1975   -5.0051    0.0000 C   0  0  0  0  0  0  0  0  0  0  0  0
   -2.0180   -4.9188    0.0000 C   0  0  0  0  0  0  0  0  0  0  0  0
   -6.1167   -5.5101    0.0000 H   0  0  0  0  0  0  0  0  0  0  0  0
   -5.9342   -6.6624    0.0000 H   0  0  0  0  0  0  0  0  0  0  0  0
   -4.7818   -6.4799    0.0000 H   0  0  0  0  0  0  0  0  0  0  0  0
   -3.8658   -6.5159    0.0000 H   0  0  0  0  0  0  0  0  0  0  0  0
   -3.4820   -5.6834    0.0000 H   0  0  0  0  0  0  0  0  0  0  0  0
   -4.1043   -5.0103    0.0000 H   0  0  0  0  0  0  0  0  0  0  0  0
   -4.9283   -4.4116    0.0000 H   0  0  0  0  0  0  0  0  0  0  0  0
   -5.7608   -4.0278    0.0000 H   0  0  0  0  0  0  0  0  0  0  0  0
   -6.4340   -4.6500    0.0000 H   0  0  0  0  0  0  0  0  0  0  0  0
   -3.5096   -3.3252    0.0000 H   0  0  0  0  0  0  0  0  0  0  0  0
   -2.2041   -2.7440    0.0000 H   0  0  0  0  0  0  0  0  0  0  0  0
   -0.5632   -2.9165    0.0000 H   0  0  0  0  0  0  0  0  0  0  0  0
    0.4884   -3.0038    0.0000 H   0  0  0  0  0  0  0  0  0  0  0  0
    2.8426   -4.9713    0.0000 H   0  0  0  0  0  0  0  0  0  0  0  0
    3.9273   -2.9966    0.0000 H   0  0  0  0  0  0  0  0  0  0  0  0
    3.1868   -2.9966    0.0000 H   0  0  0  0  0  0  0  0  0  0  0  0
    4.9860   -2.9088    0.0000 H   0  0  0  0  0  0  0  0  0  0  0  0
    6.4149   -2.9088    0.0000 H   0  0  0  0  0  0  0  0  0  0  0  0
    7.8439   -3.7338    0.0000 H   0  0  0  0  0  0  0  0  0  0  0  0
    8.7691   -4.2413    0.0000 H   0  0  0  0  0  0  0  0  0  0  0  0
   10.1194   -6.9962    0.0000 H   0  0  0  0  0  0  0  0  0  0  0  0
   11.7604   -6.8238    0.0000 H   0  0  0  0  0  0  0  0  0  0  0  0
    6.4149   -6.2088    0.0000 H   0  0  0  0  0  0  0  0  0  0  0  0
    4.9860   -5.3838    0.0000 H   0  0  0  0  0  0  0  0  0  0  0  0
   -0.8619   -5.7587    0.0000 H   0  0  0  0  0  0  0  0  0  0  0  0
   -2.5029   -5.5863    0.0000 H   0  0  0  0  0  0  0  0  0  0  0  0
  1  2  1  0  0  0  0
  2  3  1  0  0  0  0
  2  4  1  0  0  0  0
  2  5  1  0  0  0  0
  5  6  1  0  0  0  0
  6  7  2  0  0  0  0
  6  8  1  0  0  0  0
  8  9  1  0  0  0  0
  9 10  4  0  0  0  0
 10 11  4  0  0  0  0
 11 12  4  0  0  0  0
 12 13  1  0  0  0  0
 13 14  4  0  0  0  0
 14 15  4  0  0  0  0
 15 16  1  0  0  0  0
 16 17  2  0  0  0  0
 16 18  1  0  0  0  0
 18 19  1  0  0  0  0
 19 20  1  0  0  0  0
 20 21  2  0  0  0  0
 20 22  1  0  0  0  0
 22 23  1  0  0  0  0
 23 24  4  0  0  0  0
 24 25  4  0  0  0  0
 25 26  4  0  0  0  0
 26 27  1  0  0  0  0
 27 28  4  0  0  0  0
 28 29  4  0  0  0  0
 29 30  1  0  0  0  0
 30 31  2  0  0  0  0
 30 32  1  0  0  0  0
 32 33  1  0  0  0  0
 29 34  4  0  0  0  0
 34 35  4  0  0  0  0
 27 35  4  0  0  0  0
 26 36  4  0  0  0  0
 36 37  4  0  0  0  0
 23 37  4  0  0  0  0
 15 38  4  0  0  0  0
 38 39  4  0  0  0  0
 13 39  4  0  0  0  0
 12 40  4  0  0  0  0
 40 41  4  0  0  0  0
  9 41  4  0  0  0  0
  1 42  1  0  0  0  0
  1 43  1  0  0  0  0
  1 44  1  0  0  0  0
  3 45  1  0  0  0  0
  3 46  1  0  0  0  0
  3 47  1  0  0  0  0
  4 48  1  0  0  0  0
  4 49  1  0  0  0  0
  4 50  1  0  0  0  0
  8 51  1  0  0  0  0
 10 52  1  0  0  0  0
 11 53  1  0  0  0  0
 14 54  1  0  0  0  0
 18 55  1  0  0  0  0
 19 56  1  0  0  0  0
 19 57  1  0  0  0  0
 22 58  1  0  0  0  0
 24 59  1  0  0  0  0
 25 60  1  0  0  0  0
 28 61  1  0  0  0  0
 32 62  1  0  0  0  0
 33 63  1  0  0  0  0
 36 64  1  0  0  0  0
 37 65  1  0  0  0  0
 40 66  1  0  0  0  0
 41 67  1  0  0  0  0
M  END
>  <Molecule ChEMBL ID>
CHEMBL466459

>  <Compound Key>
15

>  <Active>
0

>  <StandardizerResult>
Dearomatize (ID: Dearomatize)
Clear Stereo (ID: ClearStereo)
Wedge Clean (ID: WedgeClean)
Mesomerize (ID: Mesomerize)
Tautomerize (ID: Tautomerize)
Aromatize (ID: Aromatize)
Add Explicit Hydrogens (ID: AddExplicitH)
Neutralize (ID: Neutralize)
Clean 2D (ID: Clean2D)


$$$$

  Mrv1551102232211292D          

 42 43  0  0  0  0            999 V2000
    5.3028   -4.1484    0.0000 O   0  0  0  0  0  0  0  0  0  0  0  0
    5.3028   -3.3234    0.0000 C   0  0  0  0  0  0  0  0  0  0  0  0
    4.5883   -2.9109    0.0000 C   0  0  0  0  0  0  0  0  0  0  0  0
    3.8738   -3.3234    0.0000 C   0  0  0  0  0  0  0  0  0  0  0  0
    3.1593   -2.9109    0.0000 C   0  0  0  0  0  0  0  0  0  0  0  0
    2.4449   -3.3234    0.0000 C   0  0  0  0  0  0  0  0  0  0  0  0
    1.7304   -2.9109    0.0000 C   0  0  0  0  0  0  0  0  0  0  0  0
    0.9767   -3.2464    0.0000 C   0  0  0  0  0  0  0  0  0  0  0  0
    0.4247   -2.6333    0.0000 C   0  0  0  0  0  0  0  0  0  0  0  0
   -0.3958   -2.7196    0.0000 C   0  0  0  0  0  0  0  0  0  0  0  0
   -0.7313   -3.4732    0.0000 O   0  0  0  0  0  0  0  0  0  0  0  0
   -0.8807   -2.0521    0.0000 N   0  0  0  0  0  0  0  0  0  0  0  0
   -1.7012   -2.1384    0.0000 O   0  0  0  0  0  0  0  0  0  0  0  0
    0.8372   -1.9189    0.0000 N   0  0  0  0  0  0  0  0  0  0  0  0
    1.6442   -2.0904    0.0000 O   0  0  0  0  0  0  0  0  0  0  0  0
    6.0172   -2.9109    0.0000 N   0  0  0  0  0  0  0  0  0  0  0  0
    6.7317   -3.3234    0.0000 C   0  0  0  0  0  0  0  0  0  0  0  0
    7.4854   -2.9878    0.0000 C   0  0  0  0  0  0  0  0  0  0  0  0
    8.0374   -3.6009    0.0000 C   0  0  0  0  0  0  0  0  0  0  0  0
    7.6249   -4.3154    0.0000 C   0  0  0  0  0  0  0  0  0  0  0  0
    6.8179   -4.1438    0.0000 C   0  0  0  0  0  0  0  0  0  0  0  0
    4.9585   -2.1736    0.0000 H   0  0  0  0  0  0  0  0  0  0  0  0
    4.2180   -2.1736    0.0000 H   0  0  0  0  0  0  0  0  0  0  0  0
    3.5036   -4.0606    0.0000 H   0  0  0  0  0  0  0  0  0  0  0  0
    4.2441   -4.0606    0.0000 H   0  0  0  0  0  0  0  0  0  0  0  0
    3.5296   -2.1736    0.0000 H   0  0  0  0  0  0  0  0  0  0  0  0
    2.7891   -2.1736    0.0000 H   0  0  0  0  0  0  0  0  0  0  0  0
    2.0746   -4.0606    0.0000 H   0  0  0  0  0  0  0  0  0  0  0  0
    2.8151   -4.0606    0.0000 H   0  0  0  0  0  0  0  0  0  0  0  0
    0.8052   -4.0534    0.0000 H   0  0  0  0  0  0  0  0  0  0  0  0
   -0.5451   -1.2985    0.0000 H   0  0  0  0  0  0  0  0  0  0  0  0
   -2.1861   -1.4709    0.0000 H   0  0  0  0  0  0  0  0  0  0  0  0
    6.0172   -2.0859    0.0000 H   0  0  0  0  0  0  0  0  0  0  0  0
    6.0398   -3.7727    0.0000 H   0  0  0  0  0  0  0  0  0  0  0  0
    8.0157   -2.3558    0.0000 H   0  0  0  0  0  0  0  0  0  0  0  0
    7.2580   -2.1948    0.0000 H   0  0  0  0  0  0  0  0  0  0  0  0
    8.8023   -3.9100    0.0000 H   0  0  0  0  0  0  0  0  0  0  0  0
    8.7214   -3.1396    0.0000 H   0  0  0  0  0  0  0  0  0  0  0  0
    7.5674   -5.1384    0.0000 H   0  0  0  0  0  0  0  0  0  0  0  0
    8.2750   -4.8233    0.0000 H   0  0  0  0  0  0  0  0  0  0  0  0
    6.2849   -4.7735    0.0000 H   0  0  0  0  0  0  0  0  0  0  0  0
    6.8575   -4.9679    0.0000 H   0  0  0  0  0  0  0  0  0  0  0  0
  1  2  2  0  0  0  0
  2  3  1  0  0  0  0
  3  4  1  0  0  0  0
  4  5  1  0  0  0  0
  5  6  1  0  0  0  0
  6  7  1  0  0  0  0
  7  8  4  0  0  0  0
  8  9  4  0  0  0  0
  9 10  1  0  0  0  0
 10 11  2  0  0  0  0
 10 12  1  0  0  0  0
 12 13  1  0  0  0  0
  9 14  4  0  0  0  0
 14 15  4  0  0  0  0
  7 15  4  0  0  0  0
  2 16  1  0  0  0  0
 16 17  1  0  0  0  0
 17 18  1  0  0  0  0
 18 19  1  0  0  0  0
 19 20  1  0  0  0  0
 20 21  1  0  0  0  0
 17 21  1  0  0  0  0
  3 22  1  0  0  0  0
  3 23  1  0  0  0  0
  4 24  1  0  0  0  0
  4 25  1  0  0  0  0
  5 26  1  0  0  0  0
  5 27  1  0  0  0  0
  6 28  1  0  0  0  0
  6 29  1  0  0  0  0
  8 30  1  0  0  0  0
 12 31  1  0  0  0  0
 13 32  1  0  0  0  0
 16 33  1  0  0  0  0
 17 34  1  0  0  0  0
 18 35  1  0  0  0  0
 18 36  1  0  0  0  0
 19 37  1  0  0  0  0
 19 38  1  0  0  0  0
 20 39  1  0  0  0  0
 20 40  1  0  0  0  0
 21 41  1  0  0  0  0
 21 42  1  0  0  0  0
M  END
>  <Molecule ChEMBL ID>
CHEMBL507592

>  <Compound Key>
13

>  <Active>
0

>  <StandardizerResult>
Dearomatize (ID: Dearomatize)
Clear Stereo (ID: ClearStereo)
Wedge Clean (ID: WedgeClean)
Mesomerize (ID: Mesomerize)
Tautomerize (ID: Tautomerize)
Aromatize (ID: Aromatize)
Add Explicit Hydrogens (ID: AddExplicitH)
Neutralize (ID: Neutralize)
Clean 2D (ID: Clean2D)


$$$$
