
  Mrv1551102232217592D          

 55 57  0  0  0  0            999 V2000
    4.5196   -4.7792    0.0000 O   0  0  0  0  0  0  0  0  0  0  0  0
    4.5196   -5.6042    0.0000 C   0  0  0  0  0  0  0  0  0  0  0  0
    3.8051   -6.0167    0.0000 C   0  0  0  0  0  0  0  0  0  0  0  0
    3.0907   -5.6042    0.0000 C   0  0  0  0  0  0  0  0  0  0  0  0
    2.3762   -6.0167    0.0000 C   0  0  0  0  0  0  0  0  0  0  0  0
    1.6617   -5.6042    0.0000 C   0  0  0  0  0  0  0  0  0  0  0  0
    0.9473   -6.0167    0.0000 C   0  0  0  0  0  0  0  0  0  0  0  0
    0.2328   -5.6042    0.0000 C   0  0  0  0  0  0  0  0  0  0  0  0
   -0.4817   -6.0167    0.0000 C   0  0  0  0  0  0  0  0  0  0  0  0
   -0.4817   -6.8417    0.0000 O   0  0  0  0  0  0  0  0  0  0  0  0
   -1.1962   -5.6042    0.0000 N   0  0  0  0  0  0  0  0  0  0  0  0
   -1.9106   -6.0167    0.0000 C   0  0  0  0  0  0  0  0  0  0  0  0
   -1.9106   -6.8417    0.0000 C   0  0  0  0  0  0  0  0  0  0  0  0
   -2.6251   -7.2542    0.0000 C   0  0  0  0  0  0  0  0  0  0  0  0
   -3.3396   -6.8417    0.0000 C   0  0  0  0  0  0  0  0  0  0  0  0
   -3.3396   -6.0167    0.0000 C   0  0  0  0  0  0  0  0  0  0  0  0
   -4.0540   -5.6042    0.0000 C   0  0  0  0  0  0  0  0  0  0  0  0
   -4.8077   -5.9398    0.0000 C   0  0  0  0  0  0  0  0  0  0  0  0
   -5.3597   -5.3267    0.0000 N   0  0  0  0  0  0  0  0  0  0  0  0
   -6.1802   -5.4129    0.0000 C   0  0  0  0  0  0  0  0  0  0  0  0
   -6.5158   -6.1666    0.0000 C   0  0  0  0  0  0  0  0  0  0  0  0
   -7.3363   -6.2528    0.0000 C   0  0  0  0  0  0  0  0  0  0  0  0
   -7.8212   -5.5854    0.0000 C   0  0  0  0  0  0  0  0  0  0  0  0
   -8.6417   -5.6716    0.0000 I   0  0  0  0  0  0  0  0  0  0  0  0
   -7.4856   -4.8317    0.0000 C   0  0  0  0  0  0  0  0  0  0  0  0
   -6.6651   -4.7455    0.0000 C   0  0  0  0  0  0  0  0  0  0  0  0
   -4.9472   -4.6122    0.0000 N   0  0  0  0  0  0  0  0  0  0  0  0
   -4.1403   -4.7837    0.0000 N   0  0  0  0  0  0  0  0  0  0  0  0
   -2.6251   -5.6042    0.0000 C   0  0  0  0  0  0  0  0  0  0  0  0
    5.2341   -6.0167    0.0000 N   0  0  0  0  0  0  0  0  0  0  0  0
    5.9486   -5.6042    0.0000 O   0  0  0  0  0  0  0  0  0  0  0  0
    3.4349   -6.7540    0.0000 H   0  0  0  0  0  0  0  0  0  0  0  0
    4.1754   -6.7540    0.0000 H   0  0  0  0  0  0  0  0  0  0  0  0
    3.4609   -4.8670    0.0000 H   0  0  0  0  0  0  0  0  0  0  0  0
    2.7204   -4.8670    0.0000 H   0  0  0  0  0  0  0  0  0  0  0  0
    2.0059   -6.7540    0.0000 H   0  0  0  0  0  0  0  0  0  0  0  0
    2.7465   -6.7540    0.0000 H   0  0  0  0  0  0  0  0  0  0  0  0
    2.0320   -4.8670    0.0000 H   0  0  0  0  0  0  0  0  0  0  0  0
    1.2915   -4.8670    0.0000 H   0  0  0  0  0  0  0  0  0  0  0  0
    0.5770   -6.7540    0.0000 H   0  0  0  0  0  0  0  0  0  0  0  0
    1.3175   -6.7540    0.0000 H   0  0  0  0  0  0  0  0  0  0  0  0
    0.6030   -4.8670    0.0000 H   0  0  0  0  0  0  0  0  0  0  0  0
   -0.1375   -4.8670    0.0000 H   0  0  0  0  0  0  0  0  0  0  0  0
   -1.1962   -4.7792    0.0000 H   0  0  0  0  0  0  0  0  0  0  0  0
   -1.1962   -7.2542    0.0000 H   0  0  0  0  0  0  0  0  0  0  0  0
   -2.6251   -8.0792    0.0000 H   0  0  0  0  0  0  0  0  0  0  0  0
   -4.0540   -7.2542    0.0000 H   0  0  0  0  0  0  0  0  0  0  0  0
   -4.9792   -6.7467    0.0000 H   0  0  0  0  0  0  0  0  0  0  0  0
   -6.0309   -6.8340    0.0000 H   0  0  0  0  0  0  0  0  0  0  0  0
   -7.6718   -7.0065    0.0000 H   0  0  0  0  0  0  0  0  0  0  0  0
   -7.9706   -4.1643    0.0000 H   0  0  0  0  0  0  0  0  0  0  0  0
   -6.3296   -3.9918    0.0000 H   0  0  0  0  0  0  0  0  0  0  0  0
   -2.6251   -4.7792    0.0000 H   0  0  0  0  0  0  0  0  0  0  0  0
    5.2341   -6.8417    0.0000 H   0  0  0  0  0  0  0  0  0  0  0  0
    6.6630   -6.0167    0.0000 H   0  0  0  0  0  0  0  0  0  0  0  0
  1  2  2  0  0  0  0
  2  3  1  0  0  0  0
  3  4  1  0  0  0  0
  4  5  1  0  0  0  0
  5  6  1  0  0  0  0
  6  7  1  0  0  0  0
  7  8  1  0  0  0  0
  8  9  1  0  0  0  0
  9 10  2  0  0  0  0
  9 11  1  0  0  0  0
 11 12  1  0  0  0  0
 12 13  4  0  0  0  0
 13 14  4  0  0  0  0
 14 15  4  0  0  0  0
 15 16  4  0  0  0  0
 16 17  1  0  0  0  0
 17 18  4  0  0  0  0
 18 19  4  0  0  0  0
 19 20  1  0  0  0  0
 20 21  4  0  0  0  0
 21 22  4  0  0  0  0
 22 23  4  0  0  0  0
 23 24  1  0  0  0  0
 23 25  4  0  0  0  0
 25 26  4  0  0  0  0
 20 26  4  0  0  0  0
 19 27  4  0  0  0  0
 27 28  4  0  0  0  0
 17 28  4  0  0  0  0
 16 29  4  0  0  0  0
 12 29  4  0  0  0  0
  2 30  1  0  0  0  0
 30 31  1  0  0  0  0
  3 32  1  0  0  0  0
  3 33  1  0  0  0  0
  4 34  1  0  0  0  0
  4 35  1  0  0  0  0
  5 36  1  0  0  0  0
  5 37  1  0  0  0  0
  6 38  1  0  0  0  0
  6 39  1  0  0  0  0
  7 40  1  0  0  0  0
  7 41  1  0  0  0  0
  8 42  1  0  0  0  0
  8 43  1  0  0  0  0
 11 44  1  0  0  0  0
 13 45  1  0  0  0  0
 14 46  1  0  0  0  0
 15 47  1  0  0  0  0
 18 48  1  0  0  0  0
 21 49  1  0  0  0  0
 22 50  1  0  0  0  0
 25 51  1  0  0  0  0
 26 52  1  0  0  0  0
 29 53  1  0  0  0  0
 30 54  1  0  0  0  0
 31 55  1  0  0  0  0
M  END
>  <Molecule ChEMBL ID>
CHEMBL1091475

>  <Compound Key>
4c

>  <Active>
1

>  <StandardizerResult>
Dearomatize (ID: Dearomatize)
Clear Stereo (ID: ClearStereo)
Wedge Clean (ID: WedgeClean)
Mesomerize (ID: Mesomerize)
Tautomerize (ID: Tautomerize)
Aromatize (ID: Aromatize)
Add Explicit Hydrogens (ID: AddExplicitH)
Neutralize (ID: Neutralize)
Clean 2D (ID: Clean2D)


$$$$

  Mrv1551102232217592D          

 64 68  0  0  0  0            999 V2000
    8.1106    6.4334    0.0000 O   0  0  0  0  0  0  0  0  0  0  0  0
    8.1106    5.6084    0.0000 C   0  0  0  0  0  0  0  0  0  0  0  0
    7.3962    5.1959    0.0000 C   0  0  0  0  0  0  0  0  0  0  0  0
    6.6817    5.6084    0.0000 C   0  0  0  0  0  0  0  0  0  0  0  0
    5.9672    5.1959    0.0000 C   0  0  0  0  0  0  0  0  0  0  0  0
    5.2528    5.6084    0.0000 C   0  0  0  0  0  0  0  0  0  0  0  0
    4.5383    5.1959    0.0000 C   0  0  0  0  0  0  0  0  0  0  0  0
    3.8238    5.6084    0.0000 C   0  0  0  0  0  0  0  0  0  0  0  0
    3.1093    5.1959    0.0000 N   0  0  0  0  0  0  0  0  0  0  0  0
    3.0231    4.3755    0.0000 C   0  0  0  0  0  0  0  0  0  0  0  0
    2.2161    4.2039    0.0000 C   0  0  0  0  0  0  0  0  0  0  0  0
    1.8806    3.4503    0.0000 C   0  0  0  0  0  0  0  0  0  0  0  0
    2.3655    2.7828    0.0000 C   0  0  0  0  0  0  0  0  0  0  0  0
    2.0299    2.0291    0.0000 C   0  0  0  0  0  0  0  0  0  0  0  0
    1.2095    1.9429    0.0000 C   0  0  0  0  0  0  0  0  0  0  0  0
    0.8739    1.1892    0.0000 N   0  0  0  0  0  0  0  0  0  0  0  0
    0.0534    1.1030    0.0000 C   0  0  0  0  0  0  0  0  0  0  0  0
   -0.2821    0.3493    0.0000 C   0  0  0  0  0  0  0  0  0  0  0  0
    0.2028   -0.3181    0.0000 C   0  0  0  0  0  0  0  0  0  0  0  0
   -0.1328   -1.0718    0.0000 C   0  0  0  0  0  0  0  0  0  0  0  0
   -0.9533   -1.1580    0.0000 C   0  0  0  0  0  0  0  0  0  0  0  0
   -1.4382   -0.4906    0.0000 C   0  0  0  0  0  0  0  0  0  0  0  0
   -1.1026    0.2631    0.0000 C   0  0  0  0  0  0  0  0  0  0  0  0
   -1.5875    0.9305    0.0000 N   0  0  0  0  0  0  0  0  0  0  0  0
   -1.2520    1.6842    0.0000 C   0  0  0  0  0  0  0  0  0  0  0  0
   -1.7369    2.3516    0.0000 C   0  0  0  0  0  0  0  0  0  0  0  0
   -1.4013    3.1053    0.0000 C   0  0  0  0  0  0  0  0  0  0  0  0
   -0.5809    3.1916    0.0000 C   0  0  0  0  0  0  0  0  0  0  0  0
   -0.0959    2.5241    0.0000 C   0  0  0  0  0  0  0  0  0  0  0  0
   -0.4315    1.7704    0.0000 C   0  0  0  0  0  0  0  0  0  0  0  0
    0.7245    2.6103    0.0000 C   0  0  0  0  0  0  0  0  0  0  0  0
    1.0601    3.3640    0.0000 C   0  0  0  0  0  0  0  0  0  0  0  0
    1.8036    4.9184    0.0000 N   0  0  0  0  0  0  0  0  0  0  0  0
    2.3557    5.5315    0.0000 N   0  0  0  0  0  0  0  0  0  0  0  0
    8.8251    5.1959    0.0000 N   0  0  0  0  0  0  0  0  0  0  0  0
    9.5396    5.6084    0.0000 O   0  0  0  0  0  0  0  0  0  0  0  0
    7.0259    4.4587    0.0000 H   0  0  0  0  0  0  0  0  0  0  0  0
    7.7664    4.4587    0.0000 H   0  0  0  0  0  0  0  0  0  0  0  0
    7.0520    6.3457    0.0000 H   0  0  0  0  0  0  0  0  0  0  0  0
    6.3114    6.3457    0.0000 H   0  0  0  0  0  0  0  0  0  0  0  0
    5.5970    4.4587    0.0000 H   0  0  0  0  0  0  0  0  0  0  0  0
    6.3375    4.4587    0.0000 H   0  0  0  0  0  0  0  0  0  0  0  0
    5.6230    6.3457    0.0000 H   0  0  0  0  0  0  0  0  0  0  0  0
    4.8825    6.3457    0.0000 H   0  0  0  0  0  0  0  0  0  0  0  0
    4.1680    4.4587    0.0000 H   0  0  0  0  0  0  0  0  0  0  0  0
    4.9085    4.4587    0.0000 H   0  0  0  0  0  0  0  0  0  0  0  0
    4.1941    6.3457    0.0000 H   0  0  0  0  0  0  0  0  0  0  0  0
    3.4536    6.3457    0.0000 H   0  0  0  0  0  0  0  0  0  0  0  0
    3.6362    3.8234    0.0000 H   0  0  0  0  0  0  0  0  0  0  0  0
    3.1860    2.8691    0.0000 H   0  0  0  0  0  0  0  0  0  0  0  0
    2.5149    1.3617    0.0000 H   0  0  0  0  0  0  0  0  0  0  0  0
    1.3588    0.5218    0.0000 H   0  0  0  0  0  0  0  0  0  0  0  0
    1.0233   -0.2319    0.0000 H   0  0  0  0  0  0  0  0  0  0  0  0
    0.3522   -1.7392    0.0000 H   0  0  0  0  0  0  0  0  0  0  0  0
   -1.2888   -1.9117    0.0000 H   0  0  0  0  0  0  0  0  0  0  0  0
   -2.2587   -0.5768    0.0000 H   0  0  0  0  0  0  0  0  0  0  0  0
   -2.5574    2.2654    0.0000 H   0  0  0  0  0  0  0  0  0  0  0  0
   -1.8863    3.7728    0.0000 H   0  0  0  0  0  0  0  0  0  0  0  0
   -0.2453    3.9452    0.0000 H   0  0  0  0  0  0  0  0  0  0  0  0
    0.3890    1.8567    0.0000 H   0  0  0  0  0  0  0  0  0  0  0  0
    0.2396    3.2778    0.0000 H   0  0  0  0  0  0  0  0  0  0  0  0
    0.9739    4.1845    0.0000 H   0  0  0  0  0  0  0  0  0  0  0  0
    8.8251    4.3709    0.0000 H   0  0  0  0  0  0  0  0  0  0  0  0
   10.2541    5.1959    0.0000 H   0  0  0  0  0  0  0  0  0  0  0  0
  1  2  2  0  0  0  0
  2  3  1  0  0  0  0
  3  4  1  0  0  0  0
  4  5  1  0  0  0  0
  5  6  1  0  0  0  0
  6  7  1  0  0  0  0
  7  8  1  0  0  0  0
  8  9  1  0  0  0  0
  9 10  4  0  0  0  0
 10 11  4  0  0  0  0
 11 12  1  0  0  0  0
 12 13  4  0  0  0  0
 13 14  4  0  0  0  0
 14 15  4  0  0  0  0
 15 16  1  0  0  0  0
 16 17  1  0  0  0  0
 17 18  4  0  0  0  0
 18 19  4  0  0  0  0
 19 20  4  0  0  0  0
 20 21  4  0  0  0  0
 21 22  4  0  0  0  0
 22 23  4  0  0  0  0
 18 23  4  0  0  0  0
 23 24  4  0  0  0  0
 24 25  4  0  0  0  0
 25 26  4  0  0  0  0
 26 27  4  0  0  0  0
 27 28  4  0  0  0  0
 28 29  4  0  0  0  0
 29 30  4  0  0  0  0
 17 30  4  0  0  0  0
 25 30  4  0  0  0  0
 15 31  4  0  0  0  0
 31 32  4  0  0  0  0
 12 32  4  0  0  0  0
 11 33  4  0  0  0  0
 33 34  4  0  0  0  0
  9 34  4  0  0  0  0
  2 35  1  0  0  0  0
 35 36  1  0  0  0  0
  3 37  1  0  0  0  0
  3 38  1  0  0  0  0
  4 39  1  0  0  0  0
  4 40  1  0  0  0  0
  5 41  1  0  0  0  0
  5 42  1  0  0  0  0
  6 43  1  0  0  0  0
  6 44  1  0  0  0  0
  7 45  1  0  0  0  0
  7 46  1  0  0  0  0
  8 47  1  0  0  0  0
  8 48  1  0  0  0  0
 10 49  1  0  0  0  0
 13 50  1  0  0  0  0
 14 51  1  0  0  0  0
 16 52  1  0  0  0  0
 19 53  1  0  0  0  0
 20 54  1  0  0  0  0
 21 55  1  0  0  0  0
 22 56  1  0  0  0  0
 26 57  1  0  0  0  0
 27 58  1  0  0  0  0
 28 59  1  0  0  0  0
 29 60  1  0  0  0  0
 31 61  1  0  0  0  0
 32 62  1  0  0  0  0
 35 63  1  0  0  0  0
 36 64  1  0  0  0  0
M  END
>  <Molecule ChEMBL ID>
CHEMBL4241141

>  <Compound Key>
8c

>  <Active>
1

>  <StandardizerResult>
Dearomatize (ID: Dearomatize)
Clear Stereo (ID: ClearStereo)
Wedge Clean (ID: WedgeClean)
Mesomerize (ID: Mesomerize)
Tautomerize (ID: Tautomerize)
Aromatize (ID: Aromatize)
Add Explicit Hydrogens (ID: AddExplicitH)
Neutralize (ID: Neutralize)
Clean 2D (ID: Clean2D)


$$$$

  Mrv1551102232217592D          

 61 63  0  0  0  0            999 V2000
    4.5381   -4.8023    0.0000 O   0  0  0  0  0  0  0  0  0  0  0  0
    4.5381   -5.6273    0.0000 C   0  0  0  0  0  0  0  0  0  0  0  0
    3.8236   -6.0398    0.0000 C   0  0  0  0  0  0  0  0  0  0  0  0
    3.1092   -5.6273    0.0000 C   0  0  0  0  0  0  0  0  0  0  0  0
    2.3947   -6.0398    0.0000 C   0  0  0  0  0  0  0  0  0  0  0  0
    1.6802   -5.6273    0.0000 C   0  0  0  0  0  0  0  0  0  0  0  0
    0.9657   -6.0398    0.0000 C   0  0  0  0  0  0  0  0  0  0  0  0
    0.2513   -5.6273    0.0000 C   0  0  0  0  0  0  0  0  0  0  0  0
   -0.4632   -6.0398    0.0000 C   0  0  0  0  0  0  0  0  0  0  0  0
   -0.4632   -6.8648    0.0000 O   0  0  0  0  0  0  0  0  0  0  0  0
   -1.1777   -5.6273    0.0000 N   0  0  0  0  0  0  0  0  0  0  0  0
   -1.8921   -6.0398    0.0000 C   0  0  0  0  0  0  0  0  0  0  0  0
   -1.8921   -6.8648    0.0000 C   0  0  0  0  0  0  0  0  0  0  0  0
   -2.6066   -7.2773    0.0000 C   0  0  0  0  0  0  0  0  0  0  0  0
   -3.3211   -6.8648    0.0000 C   0  0  0  0  0  0  0  0  0  0  0  0
   -3.3211   -6.0398    0.0000 C   0  0  0  0  0  0  0  0  0  0  0  0
   -4.0355   -5.6273    0.0000 C   0  0  0  0  0  0  0  0  0  0  0  0
   -4.7892   -5.9628    0.0000 C   0  0  0  0  0  0  0  0  0  0  0  0
   -5.3413   -5.3498    0.0000 N   0  0  0  0  0  0  0  0  0  0  0  0
   -6.1617   -5.4360    0.0000 C   0  0  0  0  0  0  0  0  0  0  0  0
   -6.4973   -6.1897    0.0000 C   0  0  0  0  0  0  0  0  0  0  0  0
   -7.3178   -6.2759    0.0000 C   0  0  0  0  0  0  0  0  0  0  0  0
   -7.8027   -5.6085    0.0000 C   0  0  0  0  0  0  0  0  0  0  0  0
   -7.4671   -4.8548    0.0000 C   0  0  0  0  0  0  0  0  0  0  0  0
   -6.6467   -4.7686    0.0000 C   0  0  0  0  0  0  0  0  0  0  0  0
   -4.9288   -4.6353    0.0000 N   0  0  0  0  0  0  0  0  0  0  0  0
   -4.1218   -4.8068    0.0000 N   0  0  0  0  0  0  0  0  0  0  0  0
   -2.6066   -5.6273    0.0000 C   0  0  0  0  0  0  0  0  0  0  0  0
    5.2526   -6.0398    0.0000 N   0  0  0  0  0  0  0  0  0  0  0  0
    5.9670   -5.6273    0.0000 O   0  0  0  0  0  0  0  0  0  0  0  0
    3.4534   -6.7770    0.0000 H   0  0  0  0  0  0  0  0  0  0  0  0
    4.1939   -6.7770    0.0000 H   0  0  0  0  0  0  0  0  0  0  0  0
    3.4794   -4.8900    0.0000 H   0  0  0  0  0  0  0  0  0  0  0  0
    2.7389   -4.8900    0.0000 H   0  0  0  0  0  0  0  0  0  0  0  0
    2.0244   -6.7770    0.0000 H   0  0  0  0  0  0  0  0  0  0  0  0
    2.7649   -6.7770    0.0000 H   0  0  0  0  0  0  0  0  0  0  0  0
    2.0505   -4.8900    0.0000 H   0  0  0  0  0  0  0  0  0  0  0  0
    1.3100   -4.8900    0.0000 H   0  0  0  0  0  0  0  0  0  0  0  0
    0.5955   -6.7770    0.0000 H   0  0  0  0  0  0  0  0  0  0  0  0
    1.3360   -6.7770    0.0000 H   0  0  0  0  0  0  0  0  0  0  0  0
    0.6215   -4.8900    0.0000 H   0  0  0  0  0  0  0  0  0  0  0  0
   -0.1190   -4.8900    0.0000 H   0  0  0  0  0  0  0  0  0  0  0  0
   -1.1777   -4.8023    0.0000 H   0  0  0  0  0  0  0  0  0  0  0  0
   -1.1777   -7.2773    0.0000 H   0  0  0  0  0  0  0  0  0  0  0  0
   -2.6066   -8.1023    0.0000 H   0  0  0  0  0  0  0  0  0  0  0  0
   -4.0355   -7.2773    0.0000 H   0  0  0  0  0  0  0  0  0  0  0  0
   -4.9608   -6.7698    0.0000 H   0  0  0  0  0  0  0  0  0  0  0  0
   -5.8262   -4.6823    0.0000 H   0  0  0  0  0  0  0  0  0  0  0  0
   -6.3635   -7.0037    0.0000 H   0  0  0  0  0  0  0  0  0  0  0  0
   -5.7644   -6.5685    0.0000 H   0  0  0  0  0  0  0  0  0  0  0  0
   -7.9559   -6.7988    0.0000 H   0  0  0  0  0  0  0  0  0  0  0  0
   -7.2794   -7.1000    0.0000 H   0  0  0  0  0  0  0  0  0  0  0  0
   -8.5746   -5.3173    0.0000 H   0  0  0  0  0  0  0  0  0  0  0  0
   -8.4972   -6.0538    0.0000 H   0  0  0  0  0  0  0  0  0  0  0  0
   -7.6009   -4.0407    0.0000 H   0  0  0  0  0  0  0  0  0  0  0  0
   -8.2000   -4.4760    0.0000 H   0  0  0  0  0  0  0  0  0  0  0  0
   -6.4471   -3.9681    0.0000 H   0  0  0  0  0  0  0  0  0  0  0  0
   -7.0083   -4.0270    0.0000 H   0  0  0  0  0  0  0  0  0  0  0  0
   -2.6066   -4.8023    0.0000 H   0  0  0  0  0  0  0  0  0  0  0  0
    5.2526   -6.8648    0.0000 H   0  0  0  0  0  0  0  0  0  0  0  0
    6.6815   -6.0398    0.0000 H   0  0  0  0  0  0  0  0  0  0  0  0
  1  2  2  0  0  0  0
  2  3  1  0  0  0  0
  3  4  1  0  0  0  0
  4  5  1  0  0  0  0
  5  6  1  0  0  0  0
  6  7  1  0  0  0  0
  7  8  1  0  0  0  0
  8  9  1  0  0  0  0
  9 10  2  0  0  0  0
  9 11  1  0  0  0  0
 11 12  1  0  0  0  0
 12 13  4  0  0  0  0
 13 14  4  0  0  0  0
 14 15  4  0  0  0  0
 15 16  4  0  0  0  0
 16 17  1  0  0  0  0
 17 18  4  0  0  0  0
 18 19  4  0  0  0  0
 19 20  1  0  0  0  0
 20 21  1  0  0  0  0
 21 22  1  0  0  0  0
 22 23  1  0  0  0  0
 23 24  1  0  0  0  0
 24 25  1  0  0  0  0
 20 25  1  0  0  0  0
 19 26  4  0  0  0  0
 26 27  4  0  0  0  0
 17 27  4  0  0  0  0
 16 28  4  0  0  0  0
 12 28  4  0  0  0  0
  2 29  1  0  0  0  0
 29 30  1  0  0  0  0
  3 31  1  0  0  0  0
  3 32  1  0  0  0  0
  4 33  1  0  0  0  0
  4 34  1  0  0  0  0
  5 35  1  0  0  0  0
  5 36  1  0  0  0  0
  6 37  1  0  0  0  0
  6 38  1  0  0  0  0
  7 39  1  0  0  0  0
  7 40  1  0  0  0  0
  8 41  1  0  0  0  0
  8 42  1  0  0  0  0
 11 43  1  0  0  0  0
 13 44  1  0  0  0  0
 14 45  1  0  0  0  0
 15 46  1  0  0  0  0
 18 47  1  0  0  0  0
 20 48  1  0  0  0  0
 21 49  1  0  0  0  0
 21 50  1  0  0  0  0
 22 51  1  0  0  0  0
 22 52  1  0  0  0  0
 23 53  1  0  0  0  0
 23 54  1  0  0  0  0
 24 55  1  0  0  0  0
 24 56  1  0  0  0  0
 25 57  1  0  0  0  0
 25 58  1  0  0  0  0
 28 59  1  0  0  0  0
 29 60  1  0  0  0  0
 30 61  1  0  0  0  0
M  END
>  <Molecule ChEMBL ID>
CHEMBL1094707

>  <Compound Key>
4j

>  <Active>
1

>  <StandardizerResult>
Dearomatize (ID: Dearomatize)
Clear Stereo (ID: ClearStereo)
Wedge Clean (ID: WedgeClean)
Mesomerize (ID: Mesomerize)
Tautomerize (ID: Tautomerize)
Aromatize (ID: Aromatize)
Add Explicit Hydrogens (ID: AddExplicitH)
Neutralize (ID: Neutralize)
Clean 2D (ID: Clean2D)


$$$$

  Mrv1551102232217592D          

 49 51  0  0  0  0            999 V2000
    0.7498   -0.7388    0.0000 C   0  0  0  0  0  0  0  0  0  0  0  0
    0.9213    0.0682    0.0000 C   0  0  0  0  0  0  0  0  0  0  0  0
    0.3693    0.6813    0.0000 N   0  0  0  0  0  0  0  0  0  0  0  0
    0.7818    1.3958    0.0000 C   0  0  0  0  0  0  0  0  0  0  0  0
    0.5269    2.1804    0.0000 C   0  0  0  0  0  0  0  0  0  0  0  0
    1.0789    2.7935    0.0000 C   0  0  0  0  0  0  0  0  0  0  0  0
    1.8859    2.6219    0.0000 C   0  0  0  0  0  0  0  0  0  0  0  0
    2.1408    1.8373    0.0000 C   0  0  0  0  0  0  0  0  0  0  0  0
    1.5888    1.2242    0.0000 C   0  0  0  0  0  0  0  0  0  0  0  0
    1.6750    0.4037    0.0000 C   0  0  0  0  0  0  0  0  0  0  0  0
    2.3895   -0.0088    0.0000 C   0  0  0  0  0  0  0  0  0  0  0  0
    3.1039    0.4037    0.0000 C   0  0  0  0  0  0  0  0  0  0  0  0
    3.8184   -0.0088    0.0000 N   0  0  0  0  0  0  0  0  0  0  0  0
    4.5329    0.4037    0.0000 C   0  0  0  0  0  0  0  0  0  0  0  0
    5.2474   -0.0088    0.0000 C   0  0  0  0  0  0  0  0  0  0  0  0
    5.9618    0.4037    0.0000 C   0  0  0  0  0  0  0  0  0  0  0  0
    6.6763   -0.0088    0.0000 C   0  0  0  0  0  0  0  0  0  0  0  0
    6.6763   -0.8338    0.0000 C   0  0  0  0  0  0  0  0  0  0  0  0
    7.3908   -1.2463    0.0000 C   0  0  0  0  0  0  0  0  0  0  0  0
    7.3908   -2.0713    0.0000 C   0  0  0  0  0  0  0  0  0  0  0  0
    8.1052   -2.4838    0.0000 C   0  0  0  0  0  0  0  0  0  0  0  0
    8.8197   -2.0713    0.0000 O   0  0  0  0  0  0  0  0  0  0  0  0
    8.1052   -3.3088    0.0000 N   0  0  0  0  0  0  0  0  0  0  0  0
    8.8197   -3.7213    0.0000 O   0  0  0  0  0  0  0  0  0  0  0  0
    5.9618   -1.2463    0.0000 C   0  0  0  0  0  0  0  0  0  0  0  0
    5.2474   -0.8338    0.0000 C   0  0  0  0  0  0  0  0  0  0  0  0
   -0.0572   -0.5673    0.0000 H   0  0  0  0  0  0  0  0  0  0  0  0
    0.5783   -1.5458    0.0000 H   0  0  0  0  0  0  0  0  0  0  0  0
    1.5568   -0.9103    0.0000 H   0  0  0  0  0  0  0  0  0  0  0  0
   -0.4512    0.5950    0.0000 H   0  0  0  0  0  0  0  0  0  0  0  0
   -0.2801    2.3519    0.0000 H   0  0  0  0  0  0  0  0  0  0  0  0
    0.8240    3.5781    0.0000 H   0  0  0  0  0  0  0  0  0  0  0  0
    2.4379    3.2350    0.0000 H   0  0  0  0  0  0  0  0  0  0  0  0
    2.9478    1.6658    0.0000 H   0  0  0  0  0  0  0  0  0  0  0  0
    2.0192   -0.7460    0.0000 H   0  0  0  0  0  0  0  0  0  0  0  0
    2.7597   -0.7460    0.0000 H   0  0  0  0  0  0  0  0  0  0  0  0
    3.4742    1.1410    0.0000 H   0  0  0  0  0  0  0  0  0  0  0  0
    2.7337    1.1410    0.0000 H   0  0  0  0  0  0  0  0  0  0  0  0
    3.8184   -0.8338    0.0000 H   0  0  0  0  0  0  0  0  0  0  0  0
    4.9031    1.1410    0.0000 H   0  0  0  0  0  0  0  0  0  0  0  0
    4.1626    1.1410    0.0000 H   0  0  0  0  0  0  0  0  0  0  0  0
    5.9618    1.2287    0.0000 H   0  0  0  0  0  0  0  0  0  0  0  0
    7.3908    0.4037    0.0000 H   0  0  0  0  0  0  0  0  0  0  0  0
    8.1052   -0.8338    0.0000 H   0  0  0  0  0  0  0  0  0  0  0  0
    6.6763   -2.4838    0.0000 H   0  0  0  0  0  0  0  0  0  0  0  0
    7.3908   -3.7213    0.0000 H   0  0  0  0  0  0  0  0  0  0  0  0
    8.8197   -4.5463    0.0000 H   0  0  0  0  0  0  0  0  0  0  0  0
    5.9618   -2.0713    0.0000 H   0  0  0  0  0  0  0  0  0  0  0  0
    4.5329   -1.2463    0.0000 H   0  0  0  0  0  0  0  0  0  0  0  0
  1  2  1  0  0  0  0
  2  3  4  0  0  0  0
  3  4  4  0  0  0  0
  4  5  4  0  0  0  0
  5  6  4  0  0  0  0
  6  7  4  0  0  0  0
  7  8  4  0  0  0  0
  8  9  4  0  0  0  0
  4  9  4  0  0  0  0
  9 10  4  0  0  0  0
  2 10  4  0  0  0  0
 10 11  1  0  0  0  0
 11 12  1  0  0  0  0
 12 13  1  0  0  0  0
 13 14  1  0  0  0  0
 14 15  1  0  0  0  0
 15 16  4  0  0  0  0
 16 17  4  0  0  0  0
 17 18  4  0  0  0  0
 19 18  1  4  0  0  0
 19 20  2  0  0  0  0
 20 21  1  0  0  0  0
 21 22  2  0  0  0  0
 21 23  1  0  0  0  0
 23 24  1  0  0  0  0
 18 25  4  0  0  0  0
 25 26  4  0  0  0  0
 15 26  4  0  0  0  0
  1 27  1  0  0  0  0
  1 28  1  0  0  0  0
  1 29  1  0  0  0  0
  3 30  1  0  0  0  0
  5 31  1  0  0  0  0
  6 32  1  0  0  0  0
  7 33  1  0  0  0  0
  8 34  1  0  0  0  0
 11 35  1  0  0  0  0
 11 36  1  0  0  0  0
 12 37  1  0  0  0  0
 12 38  1  0  0  0  0
 13 39  1  0  0  0  0
 14 40  1  0  0  0  0
 14 41  1  0  0  0  0
 16 42  1  0  0  0  0
 17 43  1  0  0  0  0
 19 44  1  0  0  0  0
 20 45  1  0  0  0  0
 23 46  1  0  0  0  0
 24 47  1  0  0  0  0
 25 48  1  0  0  0  0
 26 49  1  0  0  0  0
M  END
>  <Molecule ChEMBL ID>
CHEMBL483254

>  <Compound Key>
LBH-589

>  <Active>
1

>  <StandardizerResult>
Dearomatize (ID: Dearomatize)
Clear Stereo (ID: ClearStereo)
Wedge Clean (ID: WedgeClean)
Mesomerize (ID: Mesomerize)
Tautomerize (ID: Tautomerize)
Aromatize (ID: Aromatize)
Add Explicit Hydrogens (ID: AddExplicitH)
Neutralize (ID: Neutralize)
Clean 2D (ID: Clean2D)


$$$$

  Mrv1551102232217592D          

 49 50  0  0  0  0            999 V2000
    5.0013   -2.8875    0.0000 O   0  0  0  0  0  0  0  0  0  0  0  0
    5.0013   -3.7125    0.0000 C   0  0  0  0  0  0  0  0  0  0  0  0
    4.2868   -4.1250    0.0000 C   0  0  0  0  0  0  0  0  0  0  0  0
    3.5724   -3.7125    0.0000 C   0  0  0  0  0  0  0  0  0  0  0  0
    2.8579   -4.1250    0.0000 C   0  0  0  0  0  0  0  0  0  0  0  0
    2.1434   -3.7125    0.0000 C   0  0  0  0  0  0  0  0  0  0  0  0
    1.4289   -4.1250    0.0000 C   0  0  0  0  0  0  0  0  0  0  0  0
    0.7145   -3.7125    0.0000 C   0  0  0  0  0  0  0  0  0  0  0  0
    0.0000   -4.1250    0.0000 C   0  0  0  0  0  0  0  0  0  0  0  0
    0.0000   -4.9500    0.0000 O   0  0  0  0  0  0  0  0  0  0  0  0
   -0.7145   -3.7125    0.0000 N   0  0  0  0  0  0  0  0  0  0  0  0
   -1.4289   -4.1250    0.0000 C   0  0  0  0  0  0  0  0  0  0  0  0
   -1.4289   -4.9500    0.0000 C   0  0  0  0  0  0  0  0  0  0  0  0
   -2.1434   -5.3625    0.0000 C   0  0  0  0  0  0  0  0  0  0  0  0
   -2.8579   -4.9500    0.0000 C   0  0  0  0  0  0  0  0  0  0  0  0
   -3.5724   -5.3625    0.0000 C   0  0  0  0  0  0  0  0  0  0  0  0
   -3.5724   -6.1875    0.0000 C   0  0  0  0  0  0  0  0  0  0  0  0
   -4.2868   -6.6000    0.0000 C   0  0  0  0  0  0  0  0  0  0  0  0
   -5.0013   -6.1875    0.0000 C   0  0  0  0  0  0  0  0  0  0  0  0
   -5.0013   -5.3625    0.0000 C   0  0  0  0  0  0  0  0  0  0  0  0
   -4.2868   -4.9500    0.0000 C   0  0  0  0  0  0  0  0  0  0  0  0
   -2.8579   -4.1250    0.0000 C   0  0  0  0  0  0  0  0  0  0  0  0
   -2.1434   -3.7125    0.0000 C   0  0  0  0  0  0  0  0  0  0  0  0
    5.7158   -4.1250    0.0000 N   0  0  0  0  0  0  0  0  0  0  0  0
    6.4302   -3.7125    0.0000 O   0  0  0  0  0  0  0  0  0  0  0  0
    3.9166   -4.8622    0.0000 H   0  0  0  0  0  0  0  0  0  0  0  0
    4.6571   -4.8622    0.0000 H   0  0  0  0  0  0  0  0  0  0  0  0
    3.9426   -2.9753    0.0000 H   0  0  0  0  0  0  0  0  0  0  0  0
    3.2021   -2.9753    0.0000 H   0  0  0  0  0  0  0  0  0  0  0  0
    2.4876   -4.8622    0.0000 H   0  0  0  0  0  0  0  0  0  0  0  0
    3.2281   -4.8622    0.0000 H   0  0  0  0  0  0  0  0  0  0  0  0
    2.5137   -2.9753    0.0000 H   0  0  0  0  0  0  0  0  0  0  0  0
    1.7732   -2.9753    0.0000 H   0  0  0  0  0  0  0  0  0  0  0  0
    1.0587   -4.8622    0.0000 H   0  0  0  0  0  0  0  0  0  0  0  0
    1.7992   -4.8622    0.0000 H   0  0  0  0  0  0  0  0  0  0  0  0
    1.0847   -2.9753    0.0000 H   0  0  0  0  0  0  0  0  0  0  0  0
    0.3442   -2.9753    0.0000 H   0  0  0  0  0  0  0  0  0  0  0  0
   -0.7145   -2.8875    0.0000 H   0  0  0  0  0  0  0  0  0  0  0  0
   -0.7145   -5.3625    0.0000 H   0  0  0  0  0  0  0  0  0  0  0  0
   -2.1434   -6.1875    0.0000 H   0  0  0  0  0  0  0  0  0  0  0  0
   -2.8579   -6.6000    0.0000 H   0  0  0  0  0  0  0  0  0  0  0  0
   -4.2868   -7.4250    0.0000 H   0  0  0  0  0  0  0  0  0  0  0  0
   -5.7158   -6.6000    0.0000 H   0  0  0  0  0  0  0  0  0  0  0  0
   -5.7158   -4.9500    0.0000 H   0  0  0  0  0  0  0  0  0  0  0  0
   -4.2868   -4.1250    0.0000 H   0  0  0  0  0  0  0  0  0  0  0  0
   -3.5724   -3.7125    0.0000 H   0  0  0  0  0  0  0  0  0  0  0  0
   -2.1434   -2.8875    0.0000 H   0  0  0  0  0  0  0  0  0  0  0  0
    5.7158   -4.9500    0.0000 H   0  0  0  0  0  0  0  0  0  0  0  0
    7.1447   -4.1250    0.0000 H   0  0  0  0  0  0  0  0  0  0  0  0
  1  2  2  0  0  0  0
  2  3  1  0  0  0  0
  3  4  1  0  0  0  0
  4  5  1  0  0  0  0
  5  6  1  0  0  0  0
  6  7  1  0  0  0  0
  7  8  1  0  0  0  0
  8  9  1  0  0  0  0
  9 10  2  0  0  0  0
  9 11  1  0  0  0  0
 11 12  1  0  0  0  0
 12 13  4  0  0  0  0
 13 14  4  0  0  0  0
 14 15  4  0  0  0  0
 15 16  1  0  0  0  0
 16 17  4  0  0  0  0
 17 18  4  0  0  0  0
 18 19  4  0  0  0  0
 19 20  4  0  0  0  0
 20 21  4  0  0  0  0
 16 21  4  0  0  0  0
 15 22  4  0  0  0  0
 22 23  4  0  0  0  0
 12 23  4  0  0  0  0
  2 24  1  0  0  0  0
 24 25  1  0  0  0  0
  3 26  1  0  0  0  0
  3 27  1  0  0  0  0
  4 28  1  0  0  0  0
  4 29  1  0  0  0  0
  5 30  1  0  0  0  0
  5 31  1  0  0  0  0
  6 32  1  0  0  0  0
  6 33  1  0  0  0  0
  7 34  1  0  0  0  0
  7 35  1  0  0  0  0
  8 36  1  0  0  0  0
  8 37  1  0  0  0  0
 11 38  1  0  0  0  0
 13 39  1  0  0  0  0
 14 40  1  0  0  0  0
 17 41  1  0  0  0  0
 18 42  1  0  0  0  0
 19 43  1  0  0  0  0
 20 44  1  0  0  0  0
 21 45  1  0  0  0  0
 22 46  1  0  0  0  0
 23 47  1  0  0  0  0
 24 48  1  0  0  0  0
 25 49  1  0  0  0  0
M  END
>  <Molecule ChEMBL ID>
CHEMBL512644

>  <Compound Key>
5

>  <Active>
1

>  <StandardizerResult>
Dearomatize (ID: Dearomatize)
Clear Stereo (ID: ClearStereo)
Wedge Clean (ID: WedgeClean)
Mesomerize (ID: Mesomerize)
Tautomerize (ID: Tautomerize)
Aromatize (ID: Aromatize)
Add Explicit Hydrogens (ID: AddExplicitH)
Neutralize (ID: Neutralize)
Clean 2D (ID: Clean2D)


$$$$

  Mrv1551102232217592D          

 47 48  0  0  0  0            999 V2000
   -5.8640    4.8206    0.0000 N   0  0  0  0  0  0  0  0  0  0  0  0
   -5.0435    4.7344    0.0000 C   0  0  0  0  0  0  0  0  0  0  0  0
   -4.5586    5.4018    0.0000 C   0  0  0  0  0  0  0  0  0  0  0  0
   -3.7381    5.3156    0.0000 C   0  0  0  0  0  0  0  0  0  0  0  0
   -3.4025    4.5619    0.0000 C   0  0  0  0  0  0  0  0  0  0  0  0
   -2.5820    4.4757    0.0000 C   0  0  0  0  0  0  0  0  0  0  0  0
   -2.0300    5.0887    0.0000 C   0  0  0  0  0  0  0  0  0  0  0  0
   -1.2763    4.7532    0.0000 C   0  0  0  0  0  0  0  0  0  0  0  0
   -0.5619    5.1657    0.0000 C   0  0  0  0  0  0  0  0  0  0  0  0
   -0.5619    5.9907    0.0000 O   0  0  0  0  0  0  0  0  0  0  0  0
    0.1526    4.7532    0.0000 N   0  0  0  0  0  0  0  0  0  0  0  0
    0.8671    5.1657    0.0000 C   0  0  0  0  0  0  0  0  0  0  0  0
    1.5815    4.7532    0.0000 C   0  0  0  0  0  0  0  0  0  0  0  0
    2.2960    5.1657    0.0000 C   0  0  0  0  0  0  0  0  0  0  0  0
    3.0105    4.7532    0.0000 C   0  0  0  0  0  0  0  0  0  0  0  0
    3.7250    5.1657    0.0000 C   0  0  0  0  0  0  0  0  0  0  0  0
    4.4394    4.7532    0.0000 C   0  0  0  0  0  0  0  0  0  0  0  0
    5.1539    5.1657    0.0000 C   0  0  0  0  0  0  0  0  0  0  0  0
    5.1539    5.9907    0.0000 O   0  0  0  0  0  0  0  0  0  0  0  0
    5.8684    4.7532    0.0000 N   0  0  0  0  0  0  0  0  0  0  0  0
    6.5828    5.1657    0.0000 O   0  0  0  0  0  0  0  0  0  0  0  0
   -1.3626    3.9327    0.0000 N   0  0  0  0  0  0  0  0  0  0  0  0
   -2.1695    3.7612    0.0000 O   0  0  0  0  0  0  0  0  0  0  0  0
   -3.8874    3.8944    0.0000 C   0  0  0  0  0  0  0  0  0  0  0  0
   -4.7079    3.9807    0.0000 C   0  0  0  0  0  0  0  0  0  0  0  0
   -6.1995    5.5743    0.0000 H   0  0  0  0  0  0  0  0  0  0  0  0
   -6.3489    4.1532    0.0000 H   0  0  0  0  0  0  0  0  0  0  0  0
   -4.8941    6.1555    0.0000 H   0  0  0  0  0  0  0  0  0  0  0  0
   -3.2532    5.9830    0.0000 H   0  0  0  0  0  0  0  0  0  0  0  0
   -2.2015    5.8957    0.0000 H   0  0  0  0  0  0  0  0  0  0  0  0
    0.1526    3.9282    0.0000 H   0  0  0  0  0  0  0  0  0  0  0  0
    1.2373    5.9029    0.0000 H   0  0  0  0  0  0  0  0  0  0  0  0
    0.4968    5.9029    0.0000 H   0  0  0  0  0  0  0  0  0  0  0  0
    1.2113    4.0159    0.0000 H   0  0  0  0  0  0  0  0  0  0  0  0
    1.9518    4.0159    0.0000 H   0  0  0  0  0  0  0  0  0  0  0  0
    2.6663    5.9029    0.0000 H   0  0  0  0  0  0  0  0  0  0  0  0
    1.9258    5.9029    0.0000 H   0  0  0  0  0  0  0  0  0  0  0  0
    2.6402    4.0159    0.0000 H   0  0  0  0  0  0  0  0  0  0  0  0
    3.3807    4.0159    0.0000 H   0  0  0  0  0  0  0  0  0  0  0  0
    4.0952    5.9029    0.0000 H   0  0  0  0  0  0  0  0  0  0  0  0
    3.3547    5.9029    0.0000 H   0  0  0  0  0  0  0  0  0  0  0  0
    4.0692    4.0159    0.0000 H   0  0  0  0  0  0  0  0  0  0  0  0
    4.8097    4.0159    0.0000 H   0  0  0  0  0  0  0  0  0  0  0  0
    5.8684    3.9282    0.0000 H   0  0  0  0  0  0  0  0  0  0  0  0
    7.2973    4.7532    0.0000 H   0  0  0  0  0  0  0  0  0  0  0  0
   -3.5519    3.1408    0.0000 H   0  0  0  0  0  0  0  0  0  0  0  0
   -5.1929    3.3132    0.0000 H   0  0  0  0  0  0  0  0  0  0  0  0
  1  2  1  0  0  0  0
  2  3  4  0  0  0  0
  3  4  4  0  0  0  0
  4  5  4  0  0  0  0
  5  6  1  0  0  0  0
  6  7  4  0  0  0  0
  7  8  4  0  0  0  0
  8  9  1  0  0  0  0
  9 10  2  0  0  0  0
  9 11  1  0  0  0  0
 11 12  1  0  0  0  0
 12 13  1  0  0  0  0
 13 14  1  0  0  0  0
 14 15  1  0  0  0  0
 15 16  1  0  0  0  0
 16 17  1  0  0  0  0
 17 18  1  0  0  0  0
 18 19  2  0  0  0  0
 18 20  1  0  0  0  0
 20 21  1  0  0  0  0
  8 22  4  0  0  0  0
 22 23  4  0  0  0  0
  6 23  4  0  0  0  0
  5 24  4  0  0  0  0
 24 25  4  0  0  0  0
  2 25  4  0  0  0  0
  1 26  1  0  0  0  0
  1 27  1  0  0  0  0
  3 28  1  0  0  0  0
  4 29  1  0  0  0  0
  7 30  1  0  0  0  0
 11 31  1  0  0  0  0
 12 32  1  0  0  0  0
 12 33  1  0  0  0  0
 13 34  1  0  0  0  0
 13 35  1  0  0  0  0
 14 36  1  0  0  0  0
 14 37  1  0  0  0  0
 15 38  1  0  0  0  0
 15 39  1  0  0  0  0
 16 40  1  0  0  0  0
 16 41  1  0  0  0  0
 17 42  1  0  0  0  0
 17 43  1  0  0  0  0
 20 44  1  0  0  0  0
 21 45  1  0  0  0  0
 24 46  1  0  0  0  0
 25 47  1  0  0  0  0
M  END
>  <Molecule ChEMBL ID>
CHEMBL467793

>  <Compound Key>
9

>  <Active>
1

>  <StandardizerResult>
Dearomatize (ID: Dearomatize)
Clear Stereo (ID: ClearStereo)
Wedge Clean (ID: WedgeClean)
Mesomerize (ID: Mesomerize)
Tautomerize (ID: Tautomerize)
Aromatize (ID: Aromatize)
Add Explicit Hydrogens (ID: AddExplicitH)
Neutralize (ID: Neutralize)
Clean 2D (ID: Clean2D)


$$$$

  Mrv1551102232217592D          

 59 61  0  0  0  0            999 V2000
    9.9712   -3.8377    0.0000 O   0  0  0  0  0  0  0  0  0  0  0  0
    9.9712   -4.6627    0.0000 C   0  0  0  0  0  0  0  0  0  0  0  0
    9.2567   -5.0752    0.0000 C   0  0  0  0  0  0  0  0  0  0  0  0
    8.5423   -4.6627    0.0000 C   0  0  0  0  0  0  0  0  0  0  0  0
    7.8278   -5.0752    0.0000 C   0  0  0  0  0  0  0  0  0  0  0  0
    7.1133   -4.6627    0.0000 C   0  0  0  0  0  0  0  0  0  0  0  0
    6.3988   -5.0752    0.0000 C   0  0  0  0  0  0  0  0  0  0  0  0
    5.6844   -4.6627    0.0000 C   0  0  0  0  0  0  0  0  0  0  0  0
    4.9699   -5.0752    0.0000 C   0  0  0  0  0  0  0  0  0  0  0  0
    4.9699   -5.9002    0.0000 O   0  0  0  0  0  0  0  0  0  0  0  0
    4.2554   -4.6627    0.0000 N   0  0  0  0  0  0  0  0  0  0  0  0
    3.5410   -5.0752    0.0000 C   0  0  0  0  0  0  0  0  0  0  0  0
    3.5410   -5.9002    0.0000 C   0  0  0  0  0  0  0  0  0  0  0  0
    2.8265   -6.3127    0.0000 C   0  0  0  0  0  0  0  0  0  0  0  0
    2.1120   -5.9002    0.0000 C   0  0  0  0  0  0  0  0  0  0  0  0
    2.1120   -5.0752    0.0000 C   0  0  0  0  0  0  0  0  0  0  0  0
    1.3976   -4.6627    0.0000 C   0  0  0  0  0  0  0  0  0  0  0  0
    0.6439   -4.9983    0.0000 C   0  0  0  0  0  0  0  0  0  0  0  0
    0.0918   -4.3852    0.0000 N   0  0  0  0  0  0  0  0  0  0  0  0
   -0.7286   -4.4714    0.0000 C   0  0  0  0  0  0  0  0  0  0  0  0
   -1.2136   -3.8040    0.0000 C   0  0  0  0  0  0  0  0  0  0  0  0
   -2.0340   -3.8902    0.0000 C   0  0  0  0  0  0  0  0  0  0  0  0
   -2.5190   -3.2228    0.0000 C   0  0  0  0  0  0  0  0  0  0  0  0
   -2.1834   -2.4691    0.0000 C   0  0  0  0  0  0  0  0  0  0  0  0
   -2.6683   -1.8017    0.0000 O   0  0  0  0  0  0  0  0  0  0  0  0
   -1.3629   -2.3829    0.0000 C   0  0  0  0  0  0  0  0  0  0  0  0
   -0.8780   -3.0503    0.0000 C   0  0  0  0  0  0  0  0  0  0  0  0
    0.5043   -3.6707    0.0000 N   0  0  0  0  0  0  0  0  0  0  0  0
    1.3113   -3.8423    0.0000 N   0  0  0  0  0  0  0  0  0  0  0  0
    2.8265   -4.6627    0.0000 C   0  0  0  0  0  0  0  0  0  0  0  0
   10.6857   -5.0752    0.0000 N   0  0  0  0  0  0  0  0  0  0  0  0
   11.4001   -4.6627    0.0000 O   0  0  0  0  0  0  0  0  0  0  0  0
    8.8865   -5.8125    0.0000 H   0  0  0  0  0  0  0  0  0  0  0  0
    9.6270   -5.8125    0.0000 H   0  0  0  0  0  0  0  0  0  0  0  0
    8.9125   -3.9255    0.0000 H   0  0  0  0  0  0  0  0  0  0  0  0
    8.1720   -3.9255    0.0000 H   0  0  0  0  0  0  0  0  0  0  0  0
    7.4575   -5.8125    0.0000 H   0  0  0  0  0  0  0  0  0  0  0  0
    8.1980   -5.8125    0.0000 H   0  0  0  0  0  0  0  0  0  0  0  0
    7.4836   -3.9255    0.0000 H   0  0  0  0  0  0  0  0  0  0  0  0
    6.7431   -3.9255    0.0000 H   0  0  0  0  0  0  0  0  0  0  0  0
    6.0286   -5.8125    0.0000 H   0  0  0  0  0  0  0  0  0  0  0  0
    6.7691   -5.8125    0.0000 H   0  0  0  0  0  0  0  0  0  0  0  0
    6.0546   -3.9255    0.0000 H   0  0  0  0  0  0  0  0  0  0  0  0
    5.3141   -3.9255    0.0000 H   0  0  0  0  0  0  0  0  0  0  0  0
    4.2554   -3.8377    0.0000 H   0  0  0  0  0  0  0  0  0  0  0  0
    4.2554   -6.3127    0.0000 H   0  0  0  0  0  0  0  0  0  0  0  0
    2.8265   -7.1377    0.0000 H   0  0  0  0  0  0  0  0  0  0  0  0
    1.3976   -6.3127    0.0000 H   0  0  0  0  0  0  0  0  0  0  0  0
    0.4723   -5.8053    0.0000 H   0  0  0  0  0  0  0  0  0  0  0  0
   -1.3668   -4.9943    0.0000 H   0  0  0  0  0  0  0  0  0  0  0  0
   -0.6903   -5.2955    0.0000 H   0  0  0  0  0  0  0  0  0  0  0  0
   -2.3696   -4.6439    0.0000 H   0  0  0  0  0  0  0  0  0  0  0  0
   -3.3394   -3.3090    0.0000 H   0  0  0  0  0  0  0  0  0  0  0  0
   -2.3328   -1.0480    0.0000 H   0  0  0  0  0  0  0  0  0  0  0  0
   -1.0274   -1.6292    0.0000 H   0  0  0  0  0  0  0  0  0  0  0  0
   -0.0575   -2.9641    0.0000 H   0  0  0  0  0  0  0  0  0  0  0  0
    2.8265   -3.8377    0.0000 H   0  0  0  0  0  0  0  0  0  0  0  0
   10.6857   -5.9002    0.0000 H   0  0  0  0  0  0  0  0  0  0  0  0
   12.1146   -5.0752    0.0000 H   0  0  0  0  0  0  0  0  0  0  0  0
  1  2  2  0  0  0  0
  2  3  1  0  0  0  0
  3  4  1  0  0  0  0
  4  5  1  0  0  0  0
  5  6  1  0  0  0  0
  6  7  1  0  0  0  0
  7  8  1  0  0  0  0
  8  9  1  0  0  0  0
  9 10  2  0  0  0  0
  9 11  1  0  0  0  0
 11 12  1  0  0  0  0
 12 13  4  0  0  0  0
 13 14  4  0  0  0  0
 14 15  4  0  0  0  0
 15 16  4  0  0  0  0
 16 17  1  0  0  0  0
 17 18  4  0  0  0  0
 18 19  4  0  0  0  0
 19 20  1  0  0  0  0
 20 21  1  0  0  0  0
 21 22  4  0  0  0  0
 22 23  4  0  0  0  0
 23 24  4  0  0  0  0
 24 25  1  0  0  0  0
 24 26  4  0  0  0  0
 26 27  4  0  0  0  0
 21 27  4  0  0  0  0
 19 28  4  0  0  0  0
 28 29  4  0  0  0  0
 17 29  4  0  0  0  0
 16 30  4  0  0  0  0
 12 30  4  0  0  0  0
  2 31  1  0  0  0  0
 31 32  1  0  0  0  0
  3 33  1  0  0  0  0
  3 34  1  0  0  0  0
  4 35  1  0  0  0  0
  4 36  1  0  0  0  0
  5 37  1  0  0  0  0
  5 38  1  0  0  0  0
  6 39  1  0  0  0  0
  6 40  1  0  0  0  0
  7 41  1  0  0  0  0
  7 42  1  0  0  0  0
  8 43  1  0  0  0  0
  8 44  1  0  0  0  0
 11 45  1  0  0  0  0
 13 46  1  0  0  0  0
 14 47  1  0  0  0  0
 15 48  1  0  0  0  0
 18 49  1  0  0  0  0
 20 50  1  0  0  0  0
 20 51  1  0  0  0  0
 22 52  1  0  0  0  0
 23 53  1  0  0  0  0
 25 54  1  0  0  0  0
 26 55  1  0  0  0  0
 27 56  1  0  0  0  0
 30 57  1  0  0  0  0
 31 58  1  0  0  0  0
 32 59  1  0  0  0  0
M  END
>  <Molecule ChEMBL ID>
CHEMBL1088735

>  <Compound Key>
4f

>  <Active>
1

>  <StandardizerResult>
Dearomatize (ID: Dearomatize)
Clear Stereo (ID: ClearStereo)
Wedge Clean (ID: WedgeClean)
Mesomerize (ID: Mesomerize)
Tautomerize (ID: Tautomerize)
Aromatize (ID: Aromatize)
Add Explicit Hydrogens (ID: AddExplicitH)
Neutralize (ID: Neutralize)
Clean 2D (ID: Clean2D)


$$$$

  Mrv1551102232217592D          

 78 80  0  0  0  0            999 V2000
   -1.4715   -0.7290    0.0000 C   0  0  0  0  0  0  0  0  0  0  0  0
   -2.0235   -0.1159    0.0000 O   0  0  0  0  0  0  0  0  0  0  0  0
   -1.7686    0.6687    0.0000 C   0  0  0  0  0  0  0  0  0  0  0  0
   -2.3206    1.2818    0.0000 C   0  0  0  0  0  0  0  0  0  0  0  0
   -2.0657    2.0665    0.0000 C   0  0  0  0  0  0  0  0  0  0  0  0
   -2.4782    2.7809    0.0000 C   0  0  0  0  0  0  0  0  0  0  0  0
   -1.9262    3.3940    0.0000 C   0  0  0  0  0  0  0  0  0  0  0  0
   -1.1725    3.0585    0.0000 N   0  0  0  0  0  0  0  0  0  0  0  0
   -0.4580    3.4710    0.0000 C   0  0  0  0  0  0  0  0  0  0  0  0
   -0.4580    4.2960    0.0000 C   0  0  0  0  0  0  0  0  0  0  0  0
    0.2565    4.7085    0.0000 C   0  0  0  0  0  0  0  0  0  0  0  0
    0.2565    5.5335    0.0000 C   0  0  0  0  0  0  0  0  0  0  0  0
    0.9709    5.9460    0.0000 O   0  0  0  0  0  0  0  0  0  0  0  0
    0.9709    6.7710    0.0000 C   0  0  0  0  0  0  0  0  0  0  0  0
    0.2565    7.1835    0.0000 C   0  0  0  0  0  0  0  0  0  0  0  0
    0.2565    8.0085    0.0000 C   0  0  0  0  0  0  0  0  0  0  0  0
    0.9709    8.4210    0.0000 C   0  0  0  0  0  0  0  0  0  0  0  0
    1.6854    8.0085    0.0000 C   0  0  0  0  0  0  0  0  0  0  0  0
    2.3999    8.4210    0.0000 N   0  0  0  0  0  0  0  0  0  0  0  0
    3.1143    8.0085    0.0000 C   0  0  0  0  0  0  0  0  0  0  0  0
    3.1143    7.1835    0.0000 O   0  0  0  0  0  0  0  0  0  0  0  0
    3.8288    8.4210    0.0000 C   0  0  0  0  0  0  0  0  0  0  0  0
    4.5433    8.0085    0.0000 C   0  0  0  0  0  0  0  0  0  0  0  0
    5.2577    8.4210    0.0000 C   0  0  0  0  0  0  0  0  0  0  0  0
    5.9722    8.0085    0.0000 C   0  0  0  0  0  0  0  0  0  0  0  0
    6.6867    8.4210    0.0000 C   0  0  0  0  0  0  0  0  0  0  0  0
    7.4012    8.0085    0.0000 C   0  0  0  0  0  0  0  0  0  0  0  0
    8.1156    8.4210    0.0000 C   0  0  0  0  0  0  0  0  0  0  0  0
    8.1156    9.2460    0.0000 O   0  0  0  0  0  0  0  0  0  0  0  0
    8.8301    8.0085    0.0000 N   0  0  0  0  0  0  0  0  0  0  0  0
    9.5446    8.4210    0.0000 O   0  0  0  0  0  0  0  0  0  0  0  0
    1.6854    7.1835    0.0000 C   0  0  0  0  0  0  0  0  0  0  0  0
   -1.2587    2.2380    0.0000 C   0  0  0  0  0  0  0  0  0  0  0  0
   -0.7067    1.6249    0.0000 C   0  0  0  0  0  0  0  0  0  0  0  0
    0.1003    1.7964    0.0000 O   0  0  0  0  0  0  0  0  0  0  0  0
    0.6523    1.1833    0.0000 C   0  0  0  0  0  0  0  0  0  0  0  0
   -0.9616    0.8403    0.0000 C   0  0  0  0  0  0  0  0  0  0  0  0
   -0.4096    0.2272    0.0000 O   0  0  0  0  0  0  0  0  0  0  0  0
   -0.6645   -0.5574    0.0000 C   0  0  0  0  0  0  0  0  0  0  0  0
   -2.2785   -0.9005    0.0000 H   0  0  0  0  0  0  0  0  0  0  0  0
   -1.7265   -1.5136    0.0000 H   0  0  0  0  0  0  0  0  0  0  0  0
   -0.9195   -1.3421    0.0000 H   0  0  0  0  0  0  0  0  0  0  0  0
   -3.1276    1.1103    0.0000 H   0  0  0  0  0  0  0  0  0  0  0  0
   -3.2987    2.8672    0.0000 H   0  0  0  0  0  0  0  0  0  0  0  0
   -2.0977    4.2010    0.0000 H   0  0  0  0  0  0  0  0  0  0  0  0
   -0.0047    2.7817    0.0000 H   0  0  0  0  0  0  0  0  0  0  0  0
    0.3656    3.4230    0.0000 H   0  0  0  0  0  0  0  0  0  0  0  0
   -0.9114    4.9852    0.0000 H   0  0  0  0  0  0  0  0  0  0  0  0
   -1.2816    4.3439    0.0000 H   0  0  0  0  0  0  0  0  0  0  0  0
    0.7098    4.0192    0.0000 H   0  0  0  0  0  0  0  0  0  0  0  0
    1.0801    4.6605    0.0000 H   0  0  0  0  0  0  0  0  0  0  0  0
   -0.1969    6.2227    0.0000 H   0  0  0  0  0  0  0  0  0  0  0  0
   -0.5672    5.5814    0.0000 H   0  0  0  0  0  0  0  0  0  0  0  0
   -0.4580    6.7710    0.0000 H   0  0  0  0  0  0  0  0  0  0  0  0
   -0.4580    8.4210    0.0000 H   0  0  0  0  0  0  0  0  0  0  0  0
    0.9709    9.2460    0.0000 H   0  0  0  0  0  0  0  0  0  0  0  0
    2.3999    9.2460    0.0000 H   0  0  0  0  0  0  0  0  0  0  0  0
    4.1991    9.1582    0.0000 H   0  0  0  0  0  0  0  0  0  0  0  0
    3.4585    9.1582    0.0000 H   0  0  0  0  0  0  0  0  0  0  0  0
    4.1730    7.2712    0.0000 H   0  0  0  0  0  0  0  0  0  0  0  0
    4.9135    7.2712    0.0000 H   0  0  0  0  0  0  0  0  0  0  0  0
    5.6280    9.1582    0.0000 H   0  0  0  0  0  0  0  0  0  0  0  0
    4.8875    9.1582    0.0000 H   0  0  0  0  0  0  0  0  0  0  0  0
    5.6020    7.2712    0.0000 H   0  0  0  0  0  0  0  0  0  0  0  0
    6.3425    7.2712    0.0000 H   0  0  0  0  0  0  0  0  0  0  0  0
    7.0569    9.1582    0.0000 H   0  0  0  0  0  0  0  0  0  0  0  0
    6.3164    9.1582    0.0000 H   0  0  0  0  0  0  0  0  0  0  0  0
    7.0309    7.2712    0.0000 H   0  0  0  0  0  0  0  0  0  0  0  0
    7.7714    7.2712    0.0000 H   0  0  0  0  0  0  0  0  0  0  0  0
    8.8301    7.1835    0.0000 H   0  0  0  0  0  0  0  0  0  0  0  0
   10.2590    8.0085    0.0000 H   0  0  0  0  0  0  0  0  0  0  0  0
    2.3999    6.7710    0.0000 H   0  0  0  0  0  0  0  0  0  0  0  0
    0.0392    0.6313    0.0000 H   0  0  0  0  0  0  0  0  0  0  0  0
    1.2043    0.5702    0.0000 H   0  0  0  0  0  0  0  0  0  0  0  0
    1.2654    1.7354    0.0000 H   0  0  0  0  0  0  0  0  0  0  0  0
   -0.0144   -1.0654    0.0000 H   0  0  0  0  0  0  0  0  0  0  0  0
    0.1600   -0.5286    0.0000 H   0  0  0  0  0  0  0  0  0  0  0  0
   -1.2166    0.0557    0.0000 H   0  0  0  0  0  0  0  0  0  0  0  0
  1  2  1  0  0  0  0
  2  3  1  0  0  0  0
  3  4  4  0  0  0  0
  4  5  4  0  0  0  0
  5  6  4  0  0  0  0
  6  7  4  0  0  0  0
  7  8  4  0  0  0  0
  8  9  1  0  0  0  0
  9 10  1  0  0  0  0
 10 11  1  0  0  0  0
 11 12  1  0  0  0  0
 12 13  1  0  0  0  0
 13 14  1  0  0  0  0
 14 15  4  0  0  0  0
 15 16  4  0  0  0  0
 16 17  4  0  0  0  0
 17 18  4  0  0  0  0
 18 19  1  0  0  0  0
 19 20  1  0  0  0  0
 20 21  2  0  0  0  0
 20 22  1  0  0  0  0
 22 23  1  0  0  0  0
 23 24  1  0  0  0  0
 24 25  1  0  0  0  0
 25 26  1  0  0  0  0
 26 27  1  0  0  0  0
 27 28  1  0  0  0  0
 28 29  2  0  0  0  0
 28 30  1  0  0  0  0
 30 31  1  0  0  0  0
 18 32  4  0  0  0  0
 14 32  4  0  0  0  0
  8 33  4  0  0  0  0
  5 33  4  0  0  0  0
 33 34  4  0  0  0  0
 34 35  1  0  0  0  0
 35 36  1  0  0  0  0
 34 37  4  0  0  0  0
  3 37  4  0  0  0  0
 37 38  1  0  0  0  0
 38 39  1  0  0  0  0
  1 40  1  0  0  0  0
  1 41  1  0  0  0  0
  1 42  1  0  0  0  0
  4 43  1  0  0  0  0
  6 44  1  0  0  0  0
  7 45  1  0  0  0  0
  9 46  1  0  0  0  0
  9 47  1  0  0  0  0
 10 48  1  0  0  0  0
 10 49  1  0  0  0  0
 11 50  1  0  0  0  0
 11 51  1  0  0  0  0
 12 52  1  0  0  0  0
 12 53  1  0  0  0  0
 15 54  1  0  0  0  0
 16 55  1  0  0  0  0
 17 56  1  0  0  0  0
 19 57  1  0  0  0  0
 22 58  1  0  0  0  0
 22 59  1  0  0  0  0
 23 60  1  0  0  0  0
 23 61  1  0  0  0  0
 24 62  1  0  0  0  0
 24 63  1  0  0  0  0
 25 64  1  0  0  0  0
 25 65  1  0  0  0  0
 26 66  1  0  0  0  0
 26 67  1  0  0  0  0
 27 68  1  0  0  0  0
 27 69  1  0  0  0  0
 30 70  1  0  0  0  0
 31 71  1  0  0  0  0
 32 72  1  0  0  0  0
 36 73  1  0  0  0  0
 36 74  1  0  0  0  0
 36 75  1  0  0  0  0
 39 76  1  0  0  0  0
 39 77  1  0  0  0  0
 39 78  1  0  0  0  0
M  END
>  <Molecule ChEMBL ID>
CHEMBL4172420

>  <Compound Key>
6f

>  <Active>
1

>  <StandardizerResult>
Dearomatize (ID: Dearomatize)
Clear Stereo (ID: ClearStereo)
Wedge Clean (ID: WedgeClean)
Mesomerize (ID: Mesomerize)
Tautomerize (ID: Tautomerize)
Aromatize (ID: Aromatize)
Add Explicit Hydrogens (ID: AddExplicitH)
Neutralize (ID: Neutralize)
Clean 2D (ID: Clean2D)


$$$$

  Mrv1551102232217592D          

 72 74  0  0  0  0            999 V2000
   -1.0201   -0.8347    0.0000 C   0  0  0  0  0  0  0  0  0  0  0  0
   -1.5722   -0.2216    0.0000 O   0  0  0  0  0  0  0  0  0  0  0  0
   -1.3172    0.5630    0.0000 C   0  0  0  0  0  0  0  0  0  0  0  0
   -1.8693    1.1761    0.0000 C   0  0  0  0  0  0  0  0  0  0  0  0
   -1.6143    1.9607    0.0000 C   0  0  0  0  0  0  0  0  0  0  0  0
   -2.0268    2.6752    0.0000 C   0  0  0  0  0  0  0  0  0  0  0  0
   -1.4748    3.2883    0.0000 C   0  0  0  0  0  0  0  0  0  0  0  0
   -0.7211    2.9527    0.0000 N   0  0  0  0  0  0  0  0  0  0  0  0
   -0.0066    3.3652    0.0000 C   0  0  0  0  0  0  0  0  0  0  0  0
   -0.0066    4.1902    0.0000 C   0  0  0  0  0  0  0  0  0  0  0  0
    0.7078    4.6027    0.0000 O   0  0  0  0  0  0  0  0  0  0  0  0
    0.7078    5.4277    0.0000 C   0  0  0  0  0  0  0  0  0  0  0  0
   -0.0066    5.8402    0.0000 C   0  0  0  0  0  0  0  0  0  0  0  0
   -0.0066    6.6652    0.0000 C   0  0  0  0  0  0  0  0  0  0  0  0
    0.7078    7.0777    0.0000 C   0  0  0  0  0  0  0  0  0  0  0  0
    1.4223    6.6652    0.0000 C   0  0  0  0  0  0  0  0  0  0  0  0
    2.1368    7.0777    0.0000 N   0  0  0  0  0  0  0  0  0  0  0  0
    2.8512    6.6652    0.0000 C   0  0  0  0  0  0  0  0  0  0  0  0
    2.8512    5.8402    0.0000 O   0  0  0  0  0  0  0  0  0  0  0  0
    3.5657    7.0777    0.0000 C   0  0  0  0  0  0  0  0  0  0  0  0
    4.2802    6.6652    0.0000 C   0  0  0  0  0  0  0  0  0  0  0  0
    4.9947    7.0777    0.0000 C   0  0  0  0  0  0  0  0  0  0  0  0
    5.7091    6.6652    0.0000 C   0  0  0  0  0  0  0  0  0  0  0  0
    6.4236    7.0777    0.0000 C   0  0  0  0  0  0  0  0  0  0  0  0
    7.1381    6.6652    0.0000 C   0  0  0  0  0  0  0  0  0  0  0  0
    7.8525    7.0777    0.0000 C   0  0  0  0  0  0  0  0  0  0  0  0
    7.8525    7.9027    0.0000 O   0  0  0  0  0  0  0  0  0  0  0  0
    8.5670    6.6652    0.0000 N   0  0  0  0  0  0  0  0  0  0  0  0
    9.2815    7.0777    0.0000 O   0  0  0  0  0  0  0  0  0  0  0  0
    1.4223    5.8402    0.0000 C   0  0  0  0  0  0  0  0  0  0  0  0
   -0.8074    2.1322    0.0000 C   0  0  0  0  0  0  0  0  0  0  0  0
   -0.2553    1.5191    0.0000 C   0  0  0  0  0  0  0  0  0  0  0  0
    0.5517    1.6907    0.0000 O   0  0  0  0  0  0  0  0  0  0  0  0
    1.1037    1.0776    0.0000 C   0  0  0  0  0  0  0  0  0  0  0  0
   -0.5103    0.7345    0.0000 C   0  0  0  0  0  0  0  0  0  0  0  0
    0.0418    0.1214    0.0000 O   0  0  0  0  0  0  0  0  0  0  0  0
   -0.2132   -0.6632    0.0000 C   0  0  0  0  0  0  0  0  0  0  0  0
   -1.8271   -1.0062    0.0000 H   0  0  0  0  0  0  0  0  0  0  0  0
   -1.2751   -1.6193    0.0000 H   0  0  0  0  0  0  0  0  0  0  0  0
   -0.4681   -1.4478    0.0000 H   0  0  0  0  0  0  0  0  0  0  0  0
   -2.6762    1.0046    0.0000 H   0  0  0  0  0  0  0  0  0  0  0  0
   -2.8473    2.7614    0.0000 H   0  0  0  0  0  0  0  0  0  0  0  0
   -1.6463    4.0952    0.0000 H   0  0  0  0  0  0  0  0  0  0  0  0
    0.4467    2.6759    0.0000 H   0  0  0  0  0  0  0  0  0  0  0  0
    0.8170    3.3172    0.0000 H   0  0  0  0  0  0  0  0  0  0  0  0
   -0.4600    4.8795    0.0000 H   0  0  0  0  0  0  0  0  0  0  0  0
   -0.8302    4.2382    0.0000 H   0  0  0  0  0  0  0  0  0  0  0  0
   -0.7211    5.4277    0.0000 H   0  0  0  0  0  0  0  0  0  0  0  0
   -0.7211    7.0777    0.0000 H   0  0  0  0  0  0  0  0  0  0  0  0
    0.7078    7.9027    0.0000 H   0  0  0  0  0  0  0  0  0  0  0  0
    2.1368    7.9027    0.0000 H   0  0  0  0  0  0  0  0  0  0  0  0
    3.9360    7.8150    0.0000 H   0  0  0  0  0  0  0  0  0  0  0  0
    3.1955    7.8150    0.0000 H   0  0  0  0  0  0  0  0  0  0  0  0
    3.9099    5.9280    0.0000 H   0  0  0  0  0  0  0  0  0  0  0  0
    4.6504    5.9280    0.0000 H   0  0  0  0  0  0  0  0  0  0  0  0
    5.3649    7.8150    0.0000 H   0  0  0  0  0  0  0  0  0  0  0  0
    4.6244    7.8150    0.0000 H   0  0  0  0  0  0  0  0  0  0  0  0
    5.3389    5.9280    0.0000 H   0  0  0  0  0  0  0  0  0  0  0  0
    6.0794    5.9280    0.0000 H   0  0  0  0  0  0  0  0  0  0  0  0
    6.7939    7.8150    0.0000 H   0  0  0  0  0  0  0  0  0  0  0  0
    6.0533    7.8150    0.0000 H   0  0  0  0  0  0  0  0  0  0  0  0
    6.7678    5.9280    0.0000 H   0  0  0  0  0  0  0  0  0  0  0  0
    7.5083    5.9280    0.0000 H   0  0  0  0  0  0  0  0  0  0  0  0
    8.5670    5.8402    0.0000 H   0  0  0  0  0  0  0  0  0  0  0  0
    9.9959    6.6652    0.0000 H   0  0  0  0  0  0  0  0  0  0  0  0
    2.1368    5.4277    0.0000 H   0  0  0  0  0  0  0  0  0  0  0  0
    0.4906    0.5255    0.0000 H   0  0  0  0  0  0  0  0  0  0  0  0
    1.6557    0.4645    0.0000 H   0  0  0  0  0  0  0  0  0  0  0  0
    1.7168    1.6296    0.0000 H   0  0  0  0  0  0  0  0  0  0  0  0
    0.4369   -1.1711    0.0000 H   0  0  0  0  0  0  0  0  0  0  0  0
    0.6113   -0.6344    0.0000 H   0  0  0  0  0  0  0  0  0  0  0  0
   -0.7652   -0.0501    0.0000 H   0  0  0  0  0  0  0  0  0  0  0  0
  1  2  1  0  0  0  0
  2  3  1  0  0  0  0
  3  4  4  0  0  0  0
  4  5  4  0  0  0  0
  5  6  4  0  0  0  0
  6  7  4  0  0  0  0
  7  8  4  0  0  0  0
  8  9  1  0  0  0  0
  9 10  1  0  0  0  0
 10 11  1  0  0  0  0
 11 12  1  0  0  0  0
 12 13  4  0  0  0  0
 13 14  4  0  0  0  0
 14 15  4  0  0  0  0
 15 16  4  0  0  0  0
 16 17  1  0  0  0  0
 17 18  1  0  0  0  0
 18 19  2  0  0  0  0
 18 20  1  0  0  0  0
 20 21  1  0  0  0  0
 21 22  1  0  0  0  0
 22 23  1  0  0  0  0
 23 24  1  0  0  0  0
 24 25  1  0  0  0  0
 25 26  1  0  0  0  0
 26 27  2  0  0  0  0
 26 28  1  0  0  0  0
 28 29  1  0  0  0  0
 16 30  4  0  0  0  0
 12 30  4  0  0  0  0
  8 31  4  0  0  0  0
  5 31  4  0  0  0  0
 31 32  4  0  0  0  0
 32 33  1  0  0  0  0
 33 34  1  0  0  0  0
 32 35  4  0  0  0  0
  3 35  4  0  0  0  0
 35 36  1  0  0  0  0
 36 37  1  0  0  0  0
  1 38  1  0  0  0  0
  1 39  1  0  0  0  0
  1 40  1  0  0  0  0
  4 41  1  0  0  0  0
  6 42  1  0  0  0  0
  7 43  1  0  0  0  0
  9 44  1  0  0  0  0
  9 45  1  0  0  0  0
 10 46  1  0  0  0  0
 10 47  1  0  0  0  0
 13 48  1  0  0  0  0
 14 49  1  0  0  0  0
 15 50  1  0  0  0  0
 17 51  1  0  0  0  0
 20 52  1  0  0  0  0
 20 53  1  0  0  0  0
 21 54  1  0  0  0  0
 21 55  1  0  0  0  0
 22 56  1  0  0  0  0
 22 57  1  0  0  0  0
 23 58  1  0  0  0  0
 23 59  1  0  0  0  0
 24 60  1  0  0  0  0
 24 61  1  0  0  0  0
 25 62  1  0  0  0  0
 25 63  1  0  0  0  0
 28 64  1  0  0  0  0
 29 65  1  0  0  0  0
 30 66  1  0  0  0  0
 34 67  1  0  0  0  0
 34 68  1  0  0  0  0
 34 69  1  0  0  0  0
 37 70  1  0  0  0  0
 37 71  1  0  0  0  0
 37 72  1  0  0  0  0
M  END
>  <Molecule ChEMBL ID>
CHEMBL4162183

>  <Compound Key>
6d

>  <Active>
1

>  <StandardizerResult>
Dearomatize (ID: Dearomatize)
Clear Stereo (ID: ClearStereo)
Wedge Clean (ID: WedgeClean)
Mesomerize (ID: Mesomerize)
Tautomerize (ID: Tautomerize)
Aromatize (ID: Aromatize)
Add Explicit Hydrogens (ID: AddExplicitH)
Neutralize (ID: Neutralize)
Clean 2D (ID: Clean2D)


$$$$

  Mrv1551102232217592D          

 45 46  0  0  0  0            999 V2000
   -1.4289   -4.1250    0.0000 C   0  0  0  0  0  0  0  0  0  0  0  0
   -0.7145   -3.7125    0.0000 O   0  0  0  0  0  0  0  0  0  0  0  0
   -0.7145   -2.8875    0.0000 C   0  0  0  0  0  0  0  0  0  0  0  0
   -1.4289   -2.4750    0.0000 C   0  0  0  0  0  0  0  0  0  0  0  0
   -1.4289   -1.6500    0.0000 C   0  0  0  0  0  0  0  0  0  0  0  0
   -0.7145   -1.2375    0.0000 C   0  0  0  0  0  0  0  0  0  0  0  0
   -0.7145   -0.4125    0.0000 Cl  0  0  0  0  0  0  0  0  0  0  0  0
    0.0000   -1.6500    0.0000 C   0  0  0  0  0  0  0  0  0  0  0  0
    0.0000   -2.4750    0.0000 C   0  0  0  0  0  0  0  0  0  0  0  0
    0.7145   -2.8875    0.0000 C   0  0  0  0  0  0  0  0  0  0  0  0
    0.7145   -3.7125    0.0000 O   0  0  0  0  0  0  0  0  0  0  0  0
    1.4289   -2.4750    0.0000 N   0  0  0  0  0  0  0  0  0  0  0  0
    2.1434   -2.8875    0.0000 C   0  0  0  0  0  0  0  0  0  0  0  0
    2.8579   -2.4750    0.0000 C   0  0  0  0  0  0  0  0  0  0  0  0
    3.5724   -2.8875    0.0000 C   0  0  0  0  0  0  0  0  0  0  0  0
    4.2868   -2.4750    0.0000 C   0  0  0  0  0  0  0  0  0  0  0  0
    5.0013   -2.8875    0.0000 C   0  0  0  0  0  0  0  0  0  0  0  0
    5.0013   -3.7125    0.0000 C   0  0  0  0  0  0  0  0  0  0  0  0
    5.7158   -4.1250    0.0000 C   0  0  0  0  0  0  0  0  0  0  0  0
    5.7158   -4.9500    0.0000 C   0  0  0  0  0  0  0  0  0  0  0  0
    6.4302   -5.3625    0.0000 C   0  0  0  0  0  0  0  0  0  0  0  0
    7.1447   -4.9500    0.0000 O   0  0  0  0  0  0  0  0  0  0  0  0
    6.4302   -6.1875    0.0000 N   0  0  0  0  0  0  0  0  0  0  0  0
    7.1447   -6.6000    0.0000 O   0  0  0  0  0  0  0  0  0  0  0  0
    4.2868   -4.1250    0.0000 C   0  0  0  0  0  0  0  0  0  0  0  0
    3.5724   -3.7125    0.0000 C   0  0  0  0  0  0  0  0  0  0  0  0
   -1.8414   -3.4105    0.0000 H   0  0  0  0  0  0  0  0  0  0  0  0
   -2.1434   -4.5375    0.0000 H   0  0  0  0  0  0  0  0  0  0  0  0
   -1.0164   -4.8395    0.0000 H   0  0  0  0  0  0  0  0  0  0  0  0
   -2.1434   -2.8875    0.0000 H   0  0  0  0  0  0  0  0  0  0  0  0
   -2.1434   -1.2375    0.0000 H   0  0  0  0  0  0  0  0  0  0  0  0
    0.7145   -1.2375    0.0000 H   0  0  0  0  0  0  0  0  0  0  0  0
    1.4289   -1.6500    0.0000 H   0  0  0  0  0  0  0  0  0  0  0  0
    1.7732   -3.6247    0.0000 H   0  0  0  0  0  0  0  0  0  0  0  0
    2.5137   -3.6247    0.0000 H   0  0  0  0  0  0  0  0  0  0  0  0
    3.2281   -1.7378    0.0000 H   0  0  0  0  0  0  0  0  0  0  0  0
    2.4876   -1.7378    0.0000 H   0  0  0  0  0  0  0  0  0  0  0  0
    4.2868   -1.6500    0.0000 H   0  0  0  0  0  0  0  0  0  0  0  0
    5.7158   -2.4750    0.0000 H   0  0  0  0  0  0  0  0  0  0  0  0
    6.4302   -3.7125    0.0000 H   0  0  0  0  0  0  0  0  0  0  0  0
    5.0013   -5.3625    0.0000 H   0  0  0  0  0  0  0  0  0  0  0  0
    5.7158   -6.6000    0.0000 H   0  0  0  0  0  0  0  0  0  0  0  0
    7.1447   -7.4250    0.0000 H   0  0  0  0  0  0  0  0  0  0  0  0
    4.2868   -4.9500    0.0000 H   0  0  0  0  0  0  0  0  0  0  0  0
    2.8579   -4.1250    0.0000 H   0  0  0  0  0  0  0  0  0  0  0  0
  1  2  1  0  0  0  0
  2  3  1  0  0  0  0
  3  4  4  0  0  0  0
  4  5  4  0  0  0  0
  5  6  4  0  0  0  0
  6  7  1  0  0  0  0
  6  8  4  0  0  0  0
  8  9  4  0  0  0  0
  3  9  4  0  0  0  0
  9 10  1  0  0  0  0
 10 11  2  0  0  0  0
 10 12  1  0  0  0  0
 12 13  1  0  0  0  0
 13 14  1  0  0  0  0
 14 15  1  0  0  0  0
 15 16  4  0  0  0  0
 16 17  4  0  0  0  0
 17 18  4  0  0  0  0
 19 18  1  4  0  0  0
 19 20  2  0  0  0  0
 20 21  1  0  0  0  0
 21 22  2  0  0  0  0
 21 23  1  0  0  0  0
 23 24  1  0  0  0  0
 18 25  4  0  0  0  0
 25 26  4  0  0  0  0
 15 26  4  0  0  0  0
  1 27  1  0  0  0  0
  1 28  1  0  0  0  0
  1 29  1  0  0  0  0
  4 30  1  0  0  0  0
  5 31  1  0  0  0  0
  8 32  1  0  0  0  0
 12 33  1  0  0  0  0
 13 34  1  0  0  0  0
 13 35  1  0  0  0  0
 14 36  1  0  0  0  0
 14 37  1  0  0  0  0
 16 38  1  0  0  0  0
 17 39  1  0  0  0  0
 19 40  1  0  0  0  0
 20 41  1  0  0  0  0
 23 42  1  0  0  0  0
 24 43  1  0  0  0  0
 25 44  1  0  0  0  0
 26 45  1  0  0  0  0
M  END
>  <Molecule ChEMBL ID>
CHEMBL4068870

>  <Compound Key>
8

>  <Active>
0

>  <StandardizerResult>
Dearomatize (ID: Dearomatize)
Clear Stereo (ID: ClearStereo)
Wedge Clean (ID: WedgeClean)
Mesomerize (ID: Mesomerize)
Tautomerize (ID: Tautomerize)
Aromatize (ID: Aromatize)
Add Explicit Hydrogens (ID: AddExplicitH)
Neutralize (ID: Neutralize)
Clean 2D (ID: Clean2D)


$$$$

  Mrv1551102232217592D          

 40 42  0  0  0  0            999 V2000
    1.4435   -3.2935    0.0000 C   0  0  0  0  0  0  0  0  0  0  0  0
    2.1580   -3.7060    0.0000 N   0  0  0  0  0  0  0  0  0  0  0  0
    2.8725   -3.2935    0.0000 C   0  0  0  0  0  0  0  0  0  0  0  0
    2.8725   -2.4685    0.0000 C   0  0  0  0  0  0  0  0  0  0  0  0
    3.5869   -2.0560    0.0000 C   0  0  0  0  0  0  0  0  0  0  0  0
    4.3014   -2.4685    0.0000 C   0  0  0  0  0  0  0  0  0  0  0  0
    5.0159   -2.0560    0.0000 O   0  0  0  0  0  0  0  0  0  0  0  0
    5.7304   -2.4685    0.0000 C   0  0  0  0  0  0  0  0  0  0  0  0
    6.4448   -2.0560    0.0000 C   0  0  0  0  0  0  0  0  0  0  0  0
    6.4448   -1.2310    0.0000 O   0  0  0  0  0  0  0  0  0  0  0  0
    7.1593   -2.4685    0.0000 N   0  0  0  0  0  0  0  0  0  0  0  0
    7.8738   -2.0560    0.0000 O   0  0  0  0  0  0  0  0  0  0  0  0
    4.3014   -3.2935    0.0000 C   0  0  0  0  0  0  0  0  0  0  0  0
    3.5869   -3.7060    0.0000 C   0  0  0  0  0  0  0  0  0  0  0  0
    2.1580   -4.5310    0.0000 C   0  0  0  0  0  0  0  0  0  0  0  0
    2.8725   -4.9435    0.0000 N   0  0  0  0  0  0  0  0  0  0  0  0
    2.8725   -5.7685    0.0000 C   0  0  0  0  0  0  0  0  0  0  0  0
    2.1580   -6.1810    0.0000 N   0  0  0  0  0  0  0  0  0  0  0  0
    1.4435   -5.7685    0.0000 C   0  0  0  0  0  0  0  0  0  0  0  0
    0.7291   -6.1810    0.0000 C   0  0  0  0  0  0  0  0  0  0  0  0
    0.0146   -5.7685    0.0000 C   0  0  0  0  0  0  0  0  0  0  0  0
    0.0146   -4.9435    0.0000 C   0  0  0  0  0  0  0  0  0  0  0  0
    0.7291   -4.5310    0.0000 C   0  0  0  0  0  0  0  0  0  0  0  0
    1.4435   -4.9435    0.0000 C   0  0  0  0  0  0  0  0  0  0  0  0
    1.8560   -2.5790    0.0000 H   0  0  0  0  0  0  0  0  0  0  0  0
    0.7291   -2.8810    0.0000 H   0  0  0  0  0  0  0  0  0  0  0  0
    1.0310   -4.0080    0.0000 H   0  0  0  0  0  0  0  0  0  0  0  0
    2.1580   -2.0560    0.0000 H   0  0  0  0  0  0  0  0  0  0  0  0
    3.5869   -1.2310    0.0000 H   0  0  0  0  0  0  0  0  0  0  0  0
    5.3601   -3.2058    0.0000 H   0  0  0  0  0  0  0  0  0  0  0  0
    6.1006   -3.2058    0.0000 H   0  0  0  0  0  0  0  0  0  0  0  0
    7.1593   -3.2935    0.0000 H   0  0  0  0  0  0  0  0  0  0  0  0
    8.5882   -2.4685    0.0000 H   0  0  0  0  0  0  0  0  0  0  0  0
    5.0159   -3.7060    0.0000 H   0  0  0  0  0  0  0  0  0  0  0  0
    3.5869   -4.5310    0.0000 H   0  0  0  0  0  0  0  0  0  0  0  0
    3.5869   -6.1810    0.0000 H   0  0  0  0  0  0  0  0  0  0  0  0
    0.7291   -7.0060    0.0000 H   0  0  0  0  0  0  0  0  0  0  0  0
   -0.6999   -6.1810    0.0000 H   0  0  0  0  0  0  0  0  0  0  0  0
   -0.6999   -4.5310    0.0000 H   0  0  0  0  0  0  0  0  0  0  0  0
    0.1457   -3.9477    0.0000 H   0  0  0  0  0  0  0  0  0  0  0  0
  1  2  1  0  0  0  0
  2  3  1  0  0  0  0
  3  4  4  0  0  0  0
  4  5  4  0  0  0  0
  5  6  4  0  0  0  0
  6  7  1  0  0  0  0
  7  8  1  0  0  0  0
  8  9  1  0  0  0  0
  9 10  2  0  0  0  0
  9 11  1  0  0  0  0
 11 12  1  0  0  0  0
  6 13  4  0  0  0  0
 13 14  4  0  0  0  0
  3 14  4  0  0  0  0
  2 15  1  0  0  0  0
 15 16  4  0  0  0  0
 16 17  4  0  0  0  0
 17 18  4  0  0  0  0
 18 19  4  0  0  0  0
 19 20  4  0  0  0  0
 20 21  4  0  0  0  0
 21 22  4  0  0  0  0
 22 23  4  0  0  0  0
 23 24  4  0  0  0  0
 15 24  4  0  0  0  0
 19 24  4  0  0  0  0
  1 25  1  0  0  0  0
  1 26  1  0  0  0  0
  1 27  1  0  0  0  0
  4 28  1  0  0  0  0
  5 29  1  0  0  0  0
  8 30  1  0  0  0  0
  8 31  1  0  0  0  0
 11 32  1  0  0  0  0
 12 33  1  0  0  0  0
 13 34  1  0  0  0  0
 14 35  1  0  0  0  0
 17 36  1  0  0  0  0
 20 37  1  0  0  0  0
 21 38  1  0  0  0  0
 22 39  1  0  0  0  0
 23 40  1  0  0  0  0
M  END
>  <Molecule ChEMBL ID>
CHEMBL3774793

>  <Compound Key>
10a

>  <Active>
0

>  <StandardizerResult>
Dearomatize (ID: Dearomatize)
Clear Stereo (ID: ClearStereo)
Wedge Clean (ID: WedgeClean)
Mesomerize (ID: Mesomerize)
Tautomerize (ID: Tautomerize)
Aromatize (ID: Aromatize)
Add Explicit Hydrogens (ID: AddExplicitH)
Neutralize (ID: Neutralize)
Clean 2D (ID: Clean2D)


$$$$

  Mrv1551102232217592D          

 53 55  0  0  0  0            999 V2000
    6.4088   -1.1884    0.0000 C   0  0  0  0  0  0  0  0  0  0  0  0
    5.6943   -1.6009    0.0000 O   0  0  0  0  0  0  0  0  0  0  0  0
    4.9799   -1.1884    0.0000 C   0  0  0  0  0  0  0  0  0  0  0  0
    4.2654   -1.6009    0.0000 C   0  0  0  0  0  0  0  0  0  0  0  0
    3.5509   -1.1884    0.0000 C   0  0  0  0  0  0  0  0  0  0  0  0
    3.5509   -0.3634    0.0000 C   0  0  0  0  0  0  0  0  0  0  0  0
    2.8364    0.0491    0.0000 N   0  0  0  0  0  0  0  0  0  0  0  0
    2.8364    0.8741    0.0000 C   0  0  0  0  0  0  0  0  0  0  0  0
    2.1220   -0.3634    0.0000 C   0  0  0  0  0  0  0  0  0  0  0  0
    2.1220   -1.1884    0.0000 N   0  0  0  0  0  0  0  0  0  0  0  0
    1.4075   -1.6009    0.0000 C   0  0  0  0  0  0  0  0  0  0  0  0
    1.4075   -2.4259    0.0000 C   0  0  0  0  0  0  0  0  0  0  0  0
    0.6930   -1.1884    0.0000 N   0  0  0  0  0  0  0  0  0  0  0  0
    0.6930   -0.3634    0.0000 C   0  0  0  0  0  0  0  0  0  0  0  0
   -0.0214    0.0491    0.0000 C   0  0  0  0  0  0  0  0  0  0  0  0
   -0.0214    0.8741    0.0000 C   0  0  0  0  0  0  0  0  0  0  0  0
    0.6930    1.2866    0.0000 C   0  0  0  0  0  0  0  0  0  0  0  0
    1.4075    0.8741    0.0000 C   0  0  0  0  0  0  0  0  0  0  0  0
    1.4075    0.0491    0.0000 C   0  0  0  0  0  0  0  0  0  0  0  0
    4.2654    0.0491    0.0000 C   0  0  0  0  0  0  0  0  0  0  0  0
    4.9799   -0.3634    0.0000 C   0  0  0  0  0  0  0  0  0  0  0  0
    5.6943    0.0491    0.0000 O   0  0  0  0  0  0  0  0  0  0  0  0
    6.4088   -0.3634    0.0000 C   0  0  0  0  0  0  0  0  0  0  0  0
    7.1233    0.0491    0.0000 C   0  0  0  0  0  0  0  0  0  0  0  0
    7.8377   -0.3634    0.0000 C   0  0  0  0  0  0  0  0  0  0  0  0
    8.5522    0.0491    0.0000 C   0  0  0  0  0  0  0  0  0  0  0  0
    8.5522    0.8741    0.0000 O   0  0  0  0  0  0  0  0  0  0  0  0
    9.2667   -0.3634    0.0000 N   0  0  0  0  0  0  0  0  0  0  0  0
    9.9811    0.0491    0.0000 O   0  0  0  0  0  0  0  0  0  0  0  0
    6.4088   -2.0134    0.0000 H   0  0  0  0  0  0  0  0  0  0  0  0
    7.1233   -1.6009    0.0000 H   0  0  0  0  0  0  0  0  0  0  0  0
    7.1233   -0.7759    0.0000 H   0  0  0  0  0  0  0  0  0  0  0  0
    4.2654   -2.4259    0.0000 H   0  0  0  0  0  0  0  0  0  0  0  0
    2.8364   -1.6009    0.0000 H   0  0  0  0  0  0  0  0  0  0  0  0
    3.6614    0.8741    0.0000 H   0  0  0  0  0  0  0  0  0  0  0  0
    2.8364    1.6991    0.0000 H   0  0  0  0  0  0  0  0  0  0  0  0
    2.0114    0.8741    0.0000 H   0  0  0  0  0  0  0  0  0  0  0  0
    0.5825   -2.4259    0.0000 H   0  0  0  0  0  0  0  0  0  0  0  0
    1.4075   -3.2509    0.0000 H   0  0  0  0  0  0  0  0  0  0  0  0
    2.2325   -2.4259    0.0000 H   0  0  0  0  0  0  0  0  0  0  0  0
   -0.7359   -0.3634    0.0000 H   0  0  0  0  0  0  0  0  0  0  0  0
   -0.7359    1.2866    0.0000 H   0  0  0  0  0  0  0  0  0  0  0  0
    0.6930    2.1116    0.0000 H   0  0  0  0  0  0  0  0  0  0  0  0
    1.6210    1.6710    0.0000 H   0  0  0  0  0  0  0  0  0  0  0  0
    4.2654    0.8741    0.0000 H   0  0  0  0  0  0  0  0  0  0  0  0
    5.6943   -0.7759    0.0000 H   0  0  0  0  0  0  0  0  0  0  0  0
    6.4088    0.4616    0.0000 H   0  0  0  0  0  0  0  0  0  0  0  0
    7.7553    0.5794    0.0000 H   0  0  0  0  0  0  0  0  0  0  0  0
    7.2665    0.8616    0.0000 H   0  0  0  0  0  0  0  0  0  0  0  0
    7.9810   -1.1758    0.0000 H   0  0  0  0  0  0  0  0  0  0  0  0
    8.4697   -0.8937    0.0000 H   0  0  0  0  0  0  0  0  0  0  0  0
    9.7017   -1.0644    0.0000 H   0  0  0  0  0  0  0  0  0  0  0  0
   10.6956   -0.3634    0.0000 H   0  0  0  0  0  0  0  0  0  0  0  0
  1  2  1  0  0  0  0
  2  3  1  0  0  0  0
  3  4  4  0  0  0  0
  4  5  4  0  0  0  0
  5  6  4  0  0  0  0
  6  7  1  0  0  0  0
  7  8  1  0  0  0  0
  7  9  1  0  0  0  0
  9 10  4  0  0  0  0
 10 11  4  0  0  0  0
 11 12  1  0  0  0  0
 11 13  4  0  0  0  0
 13 14  4  0  0  0  0
 14 15  4  0  0  0  0
 15 16  4  0  0  0  0
 16 17  4  0  0  0  0
 17 18  4  0  0  0  0
 18 19  4  0  0  0  0
  9 19  4  0  0  0  0
 14 19  4  0  0  0  0
  6 20  4  0  0  0  0
 20 21  4  0  0  0  0
  3 21  4  0  0  0  0
 21 22  1  0  0  0  0
 22 23  1  0  0  0  0
 23 24  1  0  0  0  0
 24 25  1  0  0  0  0
 25 26  1  0  0  0  0
 26 27  2  0  0  0  0
 26 28  1  0  0  0  0
 28 29  1  0  0  0  0
  1 30  1  0  0  0  0
  1 31  1  0  0  0  0
  1 32  1  0  0  0  0
  4 33  1  0  0  0  0
  5 34  1  0  0  0  0
  8 35  1  0  0  0  0
  8 36  1  0  0  0  0
  8 37  1  0  0  0  0
 12 38  1  0  0  0  0
 12 39  1  0  0  0  0
 12 40  1  0  0  0  0
 15 41  1  0  0  0  0
 16 42  1  0  0  0  0
 17 43  1  0  0  0  0
 18 44  1  0  0  0  0
 20 45  1  0  0  0  0
 23 46  1  0  0  0  0
 23 47  1  0  0  0  0
 24 48  1  0  0  0  0
 24 49  1  0  0  0  0
 25 50  1  0  0  0  0
 25 51  1  0  0  0  0
 28 52  1  0  0  0  0
 29 53  1  0  0  0  0
M  END
>  <Molecule ChEMBL ID>
CHEMBL3774414

>  <Compound Key>
23bb

>  <Active>
0

>  <StandardizerResult>
Dearomatize (ID: Dearomatize)
Clear Stereo (ID: ClearStereo)
Wedge Clean (ID: WedgeClean)
Mesomerize (ID: Mesomerize)
Tautomerize (ID: Tautomerize)
Aromatize (ID: Aromatize)
Add Explicit Hydrogens (ID: AddExplicitH)
Neutralize (ID: Neutralize)
Clean 2D (ID: Clean2D)


$$$$

  Mrv1551102232217592D          

 52 54  0  0  0  0            999 V2000
    1.4402   -3.2950    0.0000 C   0  0  0  0  0  0  0  0  0  0  0  0
    2.1546   -3.7075    0.0000 N   0  0  0  0  0  0  0  0  0  0  0  0
    2.8691   -3.2950    0.0000 C   0  0  0  0  0  0  0  0  0  0  0  0
    2.8691   -2.4700    0.0000 C   0  0  0  0  0  0  0  0  0  0  0  0
    3.5836   -2.0575    0.0000 C   0  0  0  0  0  0  0  0  0  0  0  0
    4.2981   -2.4700    0.0000 C   0  0  0  0  0  0  0  0  0  0  0  0
    5.0125   -2.0575    0.0000 O   0  0  0  0  0  0  0  0  0  0  0  0
    5.7270   -2.4700    0.0000 C   0  0  0  0  0  0  0  0  0  0  0  0
    6.4415   -2.0575    0.0000 C   0  0  0  0  0  0  0  0  0  0  0  0
    7.1559   -2.4700    0.0000 C   0  0  0  0  0  0  0  0  0  0  0  0
    7.8704   -2.0575    0.0000 C   0  0  0  0  0  0  0  0  0  0  0  0
    8.5849   -2.4700    0.0000 C   0  0  0  0  0  0  0  0  0  0  0  0
    9.2993   -2.0575    0.0000 C   0  0  0  0  0  0  0  0  0  0  0  0
    9.2993   -1.2325    0.0000 O   0  0  0  0  0  0  0  0  0  0  0  0
   10.0138   -2.4700    0.0000 N   0  0  0  0  0  0  0  0  0  0  0  0
   10.7283   -2.0575    0.0000 O   0  0  0  0  0  0  0  0  0  0  0  0
    4.2981   -3.2950    0.0000 C   0  0  0  0  0  0  0  0  0  0  0  0
    3.5836   -3.7075    0.0000 C   0  0  0  0  0  0  0  0  0  0  0  0
    2.1546   -4.5325    0.0000 C   0  0  0  0  0  0  0  0  0  0  0  0
    2.8691   -4.9450    0.0000 N   0  0  0  0  0  0  0  0  0  0  0  0
    2.8691   -5.7700    0.0000 C   0  0  0  0  0  0  0  0  0  0  0  0
    2.1546   -6.1825    0.0000 N   0  0  0  0  0  0  0  0  0  0  0  0
    1.4402   -5.7700    0.0000 C   0  0  0  0  0  0  0  0  0  0  0  0
    0.7257   -6.1825    0.0000 C   0  0  0  0  0  0  0  0  0  0  0  0
    0.0112   -5.7700    0.0000 C   0  0  0  0  0  0  0  0  0  0  0  0
    0.0112   -4.9450    0.0000 C   0  0  0  0  0  0  0  0  0  0  0  0
    0.7257   -4.5325    0.0000 C   0  0  0  0  0  0  0  0  0  0  0  0
    1.4402   -4.9450    0.0000 C   0  0  0  0  0  0  0  0  0  0  0  0
    1.8527   -2.5805    0.0000 H   0  0  0  0  0  0  0  0  0  0  0  0
    0.7257   -2.8825    0.0000 H   0  0  0  0  0  0  0  0  0  0  0  0
    1.0277   -4.0095    0.0000 H   0  0  0  0  0  0  0  0  0  0  0  0
    2.1546   -2.0575    0.0000 H   0  0  0  0  0  0  0  0  0  0  0  0
    3.5836   -1.2325    0.0000 H   0  0  0  0  0  0  0  0  0  0  0  0
    5.3567   -3.2073    0.0000 H   0  0  0  0  0  0  0  0  0  0  0  0
    6.0973   -3.2073    0.0000 H   0  0  0  0  0  0  0  0  0  0  0  0
    6.8117   -1.3203    0.0000 H   0  0  0  0  0  0  0  0  0  0  0  0
    6.0712   -1.3203    0.0000 H   0  0  0  0  0  0  0  0  0  0  0  0
    6.7857   -3.2073    0.0000 H   0  0  0  0  0  0  0  0  0  0  0  0
    7.5262   -3.2073    0.0000 H   0  0  0  0  0  0  0  0  0  0  0  0
    8.2407   -1.3203    0.0000 H   0  0  0  0  0  0  0  0  0  0  0  0
    7.5001   -1.3203    0.0000 H   0  0  0  0  0  0  0  0  0  0  0  0
    8.2146   -3.2073    0.0000 H   0  0  0  0  0  0  0  0  0  0  0  0
    8.9551   -3.2073    0.0000 H   0  0  0  0  0  0  0  0  0  0  0  0
   10.0138   -3.2950    0.0000 H   0  0  0  0  0  0  0  0  0  0  0  0
   11.4428   -2.4700    0.0000 H   0  0  0  0  0  0  0  0  0  0  0  0
    5.0125   -3.7075    0.0000 H   0  0  0  0  0  0  0  0  0  0  0  0
    3.5836   -4.5325    0.0000 H   0  0  0  0  0  0  0  0  0  0  0  0
    3.5836   -6.1825    0.0000 H   0  0  0  0  0  0  0  0  0  0  0  0
    0.7257   -7.0075    0.0000 H   0  0  0  0  0  0  0  0  0  0  0  0
   -0.7032   -6.1825    0.0000 H   0  0  0  0  0  0  0  0  0  0  0  0
   -0.7032   -4.5325    0.0000 H   0  0  0  0  0  0  0  0  0  0  0  0
    0.1423   -3.9492    0.0000 H   0  0  0  0  0  0  0  0  0  0  0  0
  1  2  1  0  0  0  0
  2  3  1  0  0  0  0
  3  4  4  0  0  0  0
  4  5  4  0  0  0  0
  5  6  4  0  0  0  0
  6  7  1  0  0  0  0
  7  8  1  0  0  0  0
  8  9  1  0  0  0  0
  9 10  1  0  0  0  0
 10 11  1  0  0  0  0
 11 12  1  0  0  0  0
 12 13  1  0  0  0  0
 13 14  2  0  0  0  0
 13 15  1  0  0  0  0
 15 16  1  0  0  0  0
  6 17  4  0  0  0  0
 17 18  4  0  0  0  0
  3 18  4  0  0  0  0
  2 19  1  0  0  0  0
 19 20  4  0  0  0  0
 20 21  4  0  0  0  0
 21 22  4  0  0  0  0
 22 23  4  0  0  0  0
 23 24  4  0  0  0  0
 24 25  4  0  0  0  0
 25 26  4  0  0  0  0
 26 27  4  0  0  0  0
 27 28  4  0  0  0  0
 19 28  4  0  0  0  0
 23 28  4  0  0  0  0
  1 29  1  0  0  0  0
  1 30  1  0  0  0  0
  1 31  1  0  0  0  0
  4 32  1  0  0  0  0
  5 33  1  0  0  0  0
  8 34  1  0  0  0  0
  8 35  1  0  0  0  0
  9 36  1  0  0  0  0
  9 37  1  0  0  0  0
 10 38  1  0  0  0  0
 10 39  1  0  0  0  0
 11 40  1  0  0  0  0
 11 41  1  0  0  0  0
 12 42  1  0  0  0  0
 12 43  1  0  0  0  0
 15 44  1  0  0  0  0
 16 45  1  0  0  0  0
 17 46  1  0  0  0  0
 18 47  1  0  0  0  0
 21 48  1  0  0  0  0
 24 49  1  0  0  0  0
 25 50  1  0  0  0  0
 26 51  1  0  0  0  0
 27 52  1  0  0  0  0
M  END
>  <Molecule ChEMBL ID>
CHEMBL3774993

>  <Compound Key>
10d

>  <Active>
0

>  <StandardizerResult>
Dearomatize (ID: Dearomatize)
Clear Stereo (ID: ClearStereo)
Wedge Clean (ID: WedgeClean)
Mesomerize (ID: Mesomerize)
Tautomerize (ID: Tautomerize)
Aromatize (ID: Aromatize)
Add Explicit Hydrogens (ID: AddExplicitH)
Neutralize (ID: Neutralize)
Clean 2D (ID: Clean2D)


$$$$

  Mrv1551102232217592D          

 65 69  0  0  0  0            999 V2000
    3.3048   -0.8182    0.0000 C   0  0  0  0  0  0  0  0  0  0  0  0
    3.7897   -0.1508    0.0000 O   0  0  0  0  0  0  0  0  0  0  0  0
    3.4542    0.6029    0.0000 C   0  0  0  0  0  0  0  0  0  0  0  0
    2.6337    0.6891    0.0000 C   0  0  0  0  0  0  0  0  0  0  0  0
    2.2981    1.4428    0.0000 C   0  0  0  0  0  0  0  0  0  0  0  0
    2.7830    2.1102    0.0000 C   0  0  0  0  0  0  0  0  0  0  0  0
    2.4475    2.8639    0.0000 N   0  0  0  0  0  0  0  0  0  0  0  0
    2.9324    3.5313    0.0000 C   0  0  0  0  0  0  0  0  0  0  0  0
    2.5968    4.2850    0.0000 C   0  0  0  0  0  0  0  0  0  0  0  0
    3.0818    4.9524    0.0000 C   0  0  0  0  0  0  0  0  0  0  0  0
    2.7462    5.7061    0.0000 Cl  0  0  0  0  0  0  0  0  0  0  0  0
    3.9023    4.8662    0.0000 C   0  0  0  0  0  0  0  0  0  0  0  0
    4.2378    4.1125    0.0000 C   0  0  0  0  0  0  0  0  0  0  0  0
    3.7529    3.4451    0.0000 C   0  0  0  0  0  0  0  0  0  0  0  0
    4.0884    2.6914    0.0000 C   0  0  0  0  0  0  0  0  0  0  0  0
    4.9089    2.6052    0.0000 N   0  0  0  0  0  0  0  0  0  0  0  0
    5.2445    1.8515    0.0000 C   0  0  0  0  0  0  0  0  0  0  0  0
    6.0650    1.7653    0.0000 C   0  0  0  0  0  0  0  0  0  0  0  0
    6.4005    1.0116    0.0000 C   0  0  0  0  0  0  0  0  0  0  0  0
    5.9156    0.3442    0.0000 C   0  0  0  0  0  0  0  0  0  0  0  0
    6.2512   -0.4095    0.0000 C   0  0  0  0  0  0  0  0  0  0  0  0
    7.0581   -0.5810    0.0000 C   0  0  0  0  0  0  0  0  0  0  0  0
    7.1444   -1.4015    0.0000 N   0  0  0  0  0  0  0  0  0  0  0  0
    7.8588   -1.8140    0.0000 C   0  0  0  0  0  0  0  0  0  0  0  0
    8.5733   -1.4015    0.0000 C   0  0  0  0  0  0  0  0  0  0  0  0
    9.2878   -1.8140    0.0000 C   0  0  0  0  0  0  0  0  0  0  0  0
   10.0022   -1.4015    0.0000 C   0  0  0  0  0  0  0  0  0  0  0  0
   10.7167   -1.8140    0.0000 C   0  0  0  0  0  0  0  0  0  0  0  0
   11.4312   -1.4015    0.0000 C   0  0  0  0  0  0  0  0  0  0  0  0
   11.4312   -0.5765    0.0000 O   0  0  0  0  0  0  0  0  0  0  0  0
   12.1457   -1.8140    0.0000 N   0  0  0  0  0  0  0  0  0  0  0  0
   12.8601   -1.4015    0.0000 O   0  0  0  0  0  0  0  0  0  0  0  0
    6.3907   -1.7371    0.0000 N   0  0  0  0  0  0  0  0  0  0  0  0
    5.8387   -1.1240    0.0000 N   0  0  0  0  0  0  0  0  0  0  0  0
    5.0951    0.4304    0.0000 C   0  0  0  0  0  0  0  0  0  0  0  0
    4.7596    1.1841    0.0000 C   0  0  0  0  0  0  0  0  0  0  0  0
    3.6035    2.0240    0.0000 C   0  0  0  0  0  0  0  0  0  0  0  0
    3.9391    1.2703    0.0000 C   0  0  0  0  0  0  0  0  0  0  0  0
    2.6374   -0.3333    0.0000 H   0  0  0  0  0  0  0  0  0  0  0  0
    2.8199   -1.4857    0.0000 H   0  0  0  0  0  0  0  0  0  0  0  0
    3.9722   -1.3032    0.0000 H   0  0  0  0  0  0  0  0  0  0  0  0
    2.1488    0.0217    0.0000 H   0  0  0  0  0  0  0  0  0  0  0  0
    1.4776    1.5290    0.0000 H   0  0  0  0  0  0  0  0  0  0  0  0
    1.7764    4.3712    0.0000 H   0  0  0  0  0  0  0  0  0  0  0  0
    4.3872    5.5337    0.0000 H   0  0  0  0  0  0  0  0  0  0  0  0
    5.0583    4.0263    0.0000 H   0  0  0  0  0  0  0  0  0  0  0  0
    5.3938    3.2726    0.0000 H   0  0  0  0  0  0  0  0  0  0  0  0
    6.5499    2.4327    0.0000 H   0  0  0  0  0  0  0  0  0  0  0  0
    7.2210    0.9254    0.0000 H   0  0  0  0  0  0  0  0  0  0  0  0
    7.6712   -0.0290    0.0000 H   0  0  0  0  0  0  0  0  0  0  0  0
    7.4886   -2.5513    0.0000 H   0  0  0  0  0  0  0  0  0  0  0  0
    8.2291   -2.5513    0.0000 H   0  0  0  0  0  0  0  0  0  0  0  0
    8.9436   -0.6643    0.0000 H   0  0  0  0  0  0  0  0  0  0  0  0
    8.2030   -0.6643    0.0000 H   0  0  0  0  0  0  0  0  0  0  0  0
    8.9175   -2.5513    0.0000 H   0  0  0  0  0  0  0  0  0  0  0  0
    9.6580   -2.5513    0.0000 H   0  0  0  0  0  0  0  0  0  0  0  0
   10.3725   -0.6643    0.0000 H   0  0  0  0  0  0  0  0  0  0  0  0
    9.6320   -0.6643    0.0000 H   0  0  0  0  0  0  0  0  0  0  0  0
   10.3465   -2.5513    0.0000 H   0  0  0  0  0  0  0  0  0  0  0  0
   11.0870   -2.5513    0.0000 H   0  0  0  0  0  0  0  0  0  0  0  0
   12.1457   -2.6390    0.0000 H   0  0  0  0  0  0  0  0  0  0  0  0
   13.5746   -1.8140    0.0000 H   0  0  0  0  0  0  0  0  0  0  0  0
    4.6102   -0.2370    0.0000 H   0  0  0  0  0  0  0  0  0  0  0  0
    4.4240    1.9377    0.0000 H   0  0  0  0  0  0  0  0  0  0  0  0
    4.2746    0.5166    0.0000 H   0  0  0  0  0  0  0  0  0  0  0  0
  1  2  1  0  0  0  0
  2  3  1  0  0  0  0
  3  4  4  0  0  0  0
  4  5  4  0  0  0  0
  5  6  4  0  0  0  0
  6  7  4  0  0  0  0
  7  8  4  0  0  0  0
  8  9  4  0  0  0  0
  9 10  4  0  0  0  0
 10 11  1  0  0  0  0
 10 12  4  0  0  0  0
 12 13  4  0  0  0  0
 13 14  4  0  0  0  0
  8 14  4  0  0  0  0
 14 15  4  0  0  0  0
 15 16  1  0  0  0  0
 16 17  1  0  0  0  0
 17 18  4  0  0  0  0
 18 19  4  0  0  0  0
 19 20  4  0  0  0  0
 20 21  1  0  0  0  0
 21 22  4  0  0  0  0
 22 23  4  0  0  0  0
 23 24  1  0  0  0  0
 24 25  1  0  0  0  0
 25 26  1  0  0  0  0
 26 27  1  0  0  0  0
 27 28  1  0  0  0  0
 28 29  1  0  0  0  0
 29 30  2  0  0  0  0
 29 31  1  0  0  0  0
 31 32  1  0  0  0  0
 23 33  4  0  0  0  0
 33 34  4  0  0  0  0
 21 34  4  0  0  0  0
 20 35  4  0  0  0  0
 35 36  4  0  0  0  0
 17 36  4  0  0  0  0
 15 37  4  0  0  0  0
  6 37  4  0  0  0  0
 37 38  4  0  0  0  0
  3 38  4  0  0  0  0
  1 39  1  0  0  0  0
  1 40  1  0  0  0  0
  1 41  1  0  0  0  0
  4 42  1  0  0  0  0
  5 43  1  0  0  0  0
  9 44  1  0  0  0  0
 12 45  1  0  0  0  0
 13 46  1  0  0  0  0
 16 47  1  0  0  0  0
 18 48  1  0  0  0  0
 19 49  1  0  0  0  0
 22 50  1  0  0  0  0
 24 51  1  0  0  0  0
 24 52  1  0  0  0  0
 25 53  1  0  0  0  0
 25 54  1  0  0  0  0
 26 55  1  0  0  0  0
 26 56  1  0  0  0  0
 27 57  1  0  0  0  0
 27 58  1  0  0  0  0
 28 59  1  0  0  0  0
 28 60  1  0  0  0  0
 31 61  1  0  0  0  0
 32 62  1  0  0  0  0
 35 63  1  0  0  0  0
 36 64  1  0  0  0  0
 38 65  1  0  0  0  0
M  END
>  <Molecule ChEMBL ID>
CHEMBL4244887

>  <Compound Key>
8e

>  <Active>
0

>  <StandardizerResult>
Dearomatize (ID: Dearomatize)
Clear Stereo (ID: ClearStereo)
Wedge Clean (ID: WedgeClean)
Mesomerize (ID: Mesomerize)
Tautomerize (ID: Tautomerize)
Aromatize (ID: Aromatize)
Add Explicit Hydrogens (ID: AddExplicitH)
Neutralize (ID: Neutralize)
Clean 2D (ID: Clean2D)


$$$$

  Mrv1551102232217592D          

 64 65  0  0  0  0            999 V2000
   -5.3912    9.1210    0.0000 C   0  0  0  0  0  0  0  0  0  0  0  0
   -5.8761    8.4536    0.0000 C   0  0  0  0  0  0  0  0  0  0  0  0
   -5.5406    7.6999    0.0000 N   0  0  0  0  0  0  0  0  0  0  0  0
   -4.7201    7.6136    0.0000 C   0  0  0  0  0  0  0  0  0  0  0  0
   -4.3845    6.8600    0.0000 C   0  0  0  0  0  0  0  0  0  0  0  0
   -6.0255    7.0324    0.0000 C   0  0  0  0  0  0  0  0  0  0  0  0
   -5.6899    6.2788    0.0000 C   0  0  0  0  0  0  0  0  0  0  0  0
   -6.1748    5.6113    0.0000 N   0  0  0  0  0  0  0  0  0  0  0  0
   -5.8393    4.8577    0.0000 C   0  0  0  0  0  0  0  0  0  0  0  0
   -6.3242    4.1902    0.0000 O   0  0  0  0  0  0  0  0  0  0  0  0
   -5.0188    4.7714    0.0000 C   0  0  0  0  0  0  0  0  0  0  0  0
   -4.5339    5.4389    0.0000 C   0  0  0  0  0  0  0  0  0  0  0  0
   -3.7134    5.3526    0.0000 C   0  0  0  0  0  0  0  0  0  0  0  0
   -3.3778    4.5989    0.0000 C   0  0  0  0  0  0  0  0  0  0  0  0
   -2.5574    4.5127    0.0000 C   0  0  0  0  0  0  0  0  0  0  0  0
   -2.0053    5.1258    0.0000 C   0  0  0  0  0  0  0  0  0  0  0  0
   -1.2517    4.7902    0.0000 N   0  0  0  0  0  0  0  0  0  0  0  0
   -0.5372    5.2027    0.0000 C   0  0  0  0  0  0  0  0  0  0  0  0
    0.1773    4.7902    0.0000 C   0  0  0  0  0  0  0  0  0  0  0  0
    0.8918    5.2027    0.0000 C   0  0  0  0  0  0  0  0  0  0  0  0
    1.6062    4.7902    0.0000 C   0  0  0  0  0  0  0  0  0  0  0  0
    2.3207    5.2027    0.0000 C   0  0  0  0  0  0  0  0  0  0  0  0
    3.0352    4.7902    0.0000 C   0  0  0  0  0  0  0  0  0  0  0  0
    3.7496    5.2027    0.0000 C   0  0  0  0  0  0  0  0  0  0  0  0
    3.7496    6.0277    0.0000 O   0  0  0  0  0  0  0  0  0  0  0  0
    4.4641    4.7902    0.0000 N   0  0  0  0  0  0  0  0  0  0  0  0
    5.1786    5.2027    0.0000 O   0  0  0  0  0  0  0  0  0  0  0  0
   -1.3379    3.9698    0.0000 N   0  0  0  0  0  0  0  0  0  0  0  0
   -2.1449    3.7982    0.0000 N   0  0  0  0  0  0  0  0  0  0  0  0
   -3.8628    3.9315    0.0000 C   0  0  0  0  0  0  0  0  0  0  0  0
   -4.6832    4.0177    0.0000 N   0  0  0  0  0  0  0  0  0  0  0  0
   -4.7237    8.6361    0.0000 H   0  0  0  0  0  0  0  0  0  0  0  0
   -4.9063    9.7884    0.0000 H   0  0  0  0  0  0  0  0  0  0  0  0
   -6.0586    9.6059    0.0000 H   0  0  0  0  0  0  0  0  0  0  0  0
   -6.5706    8.8989    0.0000 H   0  0  0  0  0  0  0  0  0  0  0  0
   -6.6480    8.1624    0.0000 H   0  0  0  0  0  0  0  0  0  0  0  0
   -3.9872    7.9925    0.0000 H   0  0  0  0  0  0  0  0  0  0  0  0
   -4.5863    8.4277    0.0000 H   0  0  0  0  0  0  0  0  0  0  0  0
   -5.1382    6.5244    0.0000 H   0  0  0  0  0  0  0  0  0  0  0  0
   -4.0490    6.1063    0.0000 H   0  0  0  0  0  0  0  0  0  0  0  0
   -3.6308    7.1955    0.0000 H   0  0  0  0  0  0  0  0  0  0  0  0
   -6.7200    7.4777    0.0000 H   0  0  0  0  0  0  0  0  0  0  0  0
   -6.7974    6.7413    0.0000 H   0  0  0  0  0  0  0  0  0  0  0  0
   -5.1707    5.6376    0.0000 H   0  0  0  0  0  0  0  0  0  0  0  0
   -6.5104    6.3650    0.0000 H   0  0  0  0  0  0  0  0  0  0  0  0
   -6.9285    5.2758    0.0000 H   0  0  0  0  0  0  0  0  0  0  0  0
   -4.1983    4.6852    0.0000 H   0  0  0  0  0  0  0  0  0  0  0  0
   -2.9597    5.6882    0.0000 H   0  0  0  0  0  0  0  0  0  0  0  0
   -2.1769    5.9328    0.0000 H   0  0  0  0  0  0  0  0  0  0  0  0
   -0.1669    5.9400    0.0000 H   0  0  0  0  0  0  0  0  0  0  0  0
   -0.9074    5.9400    0.0000 H   0  0  0  0  0  0  0  0  0  0  0  0
   -0.1930    4.0530    0.0000 H   0  0  0  0  0  0  0  0  0  0  0  0
    0.5475    4.0530    0.0000 H   0  0  0  0  0  0  0  0  0  0  0  0
    1.2620    5.9400    0.0000 H   0  0  0  0  0  0  0  0  0  0  0  0
    0.5215    5.9400    0.0000 H   0  0  0  0  0  0  0  0  0  0  0  0
    1.2360    4.0530    0.0000 H   0  0  0  0  0  0  0  0  0  0  0  0
    1.9765    4.0530    0.0000 H   0  0  0  0  0  0  0  0  0  0  0  0
    2.6910    5.9400    0.0000 H   0  0  0  0  0  0  0  0  0  0  0  0
    1.9504    5.9400    0.0000 H   0  0  0  0  0  0  0  0  0  0  0  0
    2.6649    4.0530    0.0000 H   0  0  0  0  0  0  0  0  0  0  0  0
    3.4054    4.0530    0.0000 H   0  0  0  0  0  0  0  0  0  0  0  0
    4.4641    3.9652    0.0000 H   0  0  0  0  0  0  0  0  0  0  0  0
    5.8931    4.7902    0.0000 H   0  0  0  0  0  0  0  0  0  0  0  0
   -3.5272    3.1778    0.0000 H   0  0  0  0  0  0  0  0  0  0  0  0
  1  2  1  0  0  0  0
  2  3  1  0  0  0  0
  3  4  1  0  0  0  0
  4  5  1  0  0  0  0
  3  6  1  0  0  0  0
  6  7  1  0  0  0  0
  7  8  1  0  0  0  0
  8  9  1  0  0  0  0
  9 10  2  0  0  0  0
  9 11  1  0  0  0  0
 11 12  4  0  0  0  0
 12 13  4  0  0  0  0
 13 14  4  0  0  0  0
 14 15  1  0  0  0  0
 15 16  4  0  0  0  0
 16 17  4  0  0  0  0
 17 18  1  0  0  0  0
 18 19  1  0  0  0  0
 19 20  1  0  0  0  0
 20 21  1  0  0  0  0
 21 22  1  0  0  0  0
 22 23  1  0  0  0  0
 23 24  1  0  0  0  0
 24 25  2  0  0  0  0
 24 26  1  0  0  0  0
 26 27  1  0  0  0  0
 17 28  4  0  0  0  0
 28 29  4  0  0  0  0
 15 29  4  0  0  0  0
 14 30  4  0  0  0  0
 30 31  4  0  0  0  0
 11 31  4  0  0  0  0
  1 32  1  0  0  0  0
  1 33  1  0  0  0  0
  1 34  1  0  0  0  0
  2 35  1  0  0  0  0
  2 36  1  0  0  0  0
  4 37  1  0  0  0  0
  4 38  1  0  0  0  0
  5 39  1  0  0  0  0
  5 40  1  0  0  0  0
  5 41  1  0  0  0  0
  6 42  1  0  0  0  0
  6 43  1  0  0  0  0
  7 44  1  0  0  0  0
  7 45  1  0  0  0  0
  8 46  1  0  0  0  0
 12 47  1  0  0  0  0
 13 48  1  0  0  0  0
 16 49  1  0  0  0  0
 18 50  1  0  0  0  0
 18 51  1  0  0  0  0
 19 52  1  0  0  0  0
 19 53  1  0  0  0  0
 20 54  1  0  0  0  0
 20 55  1  0  0  0  0
 21 56  1  0  0  0  0
 21 57  1  0  0  0  0
 22 58  1  0  0  0  0
 22 59  1  0  0  0  0
 23 60  1  0  0  0  0
 23 61  1  0  0  0  0
 26 62  1  0  0  0  0
 27 63  1  0  0  0  0
 30 64  1  0  0  0  0
M  END
>  <Molecule ChEMBL ID>
CHEMBL4092997

>  <Compound Key>
11b

>  <Active>
0

>  <StandardizerResult>
Dearomatize (ID: Dearomatize)
Clear Stereo (ID: ClearStereo)
Wedge Clean (ID: WedgeClean)
Mesomerize (ID: Mesomerize)
Tautomerize (ID: Tautomerize)
Aromatize (ID: Aromatize)
Add Explicit Hydrogens (ID: AddExplicitH)
Neutralize (ID: Neutralize)
Clean 2D (ID: Clean2D)


$$$$

  Mrv1551102232217592D          

 44 47  0  0  0  0            999 V2000
   -1.7499   -5.6315    0.0000 O   0  0  0  0  0  0  0  0  0  0  0  0
   -0.9429   -5.4600    0.0000 C   0  0  0  0  0  0  0  0  0  0  0  0
   -0.3909   -6.0731    0.0000 N   0  0  0  0  0  0  0  0  0  0  0  0
   -0.6459   -6.8577    0.0000 O   0  0  0  0  0  0  0  0  0  0  0  0
   -0.6880   -4.6754    0.0000 C   0  0  0  0  0  0  0  0  0  0  0  0
   -1.2400   -4.0623    0.0000 C   0  0  0  0  0  0  0  0  0  0  0  0
   -0.9851   -3.2777    0.0000 C   0  0  0  0  0  0  0  0  0  0  0  0
   -0.1781   -3.1061    0.0000 C   0  0  0  0  0  0  0  0  0  0  0  0
    0.0768   -2.3215    0.0000 C   0  0  0  0  0  0  0  0  0  0  0  0
   -0.4752   -1.7084    0.0000 O   0  0  0  0  0  0  0  0  0  0  0  0
    0.8838   -2.1500    0.0000 N   0  0  0  0  0  0  0  0  0  0  0  0
    1.1387   -1.3654    0.0000 C   0  0  0  0  0  0  0  0  0  0  0  0
    0.6538   -0.6979    0.0000 N   0  0  0  0  0  0  0  0  0  0  0  0
    1.1387   -0.0305    0.0000 N   0  0  0  0  0  0  0  0  0  0  0  0
    1.9233   -0.2854    0.0000 C   0  0  0  0  0  0  0  0  0  0  0  0
    2.6378    0.1271    0.0000 C   0  0  0  0  0  0  0  0  0  0  0  0
    3.3523   -0.2854    0.0000 C   0  0  0  0  0  0  0  0  0  0  0  0
    4.0668    0.1271    0.0000 C   0  0  0  0  0  0  0  0  0  0  0  0
    4.0668    0.9521    0.0000 C   0  0  0  0  0  0  0  0  0  0  0  0
    4.7812    1.3646    0.0000 C   0  0  0  0  0  0  0  0  0  0  0  0
    5.4957    0.9521    0.0000 C   0  0  0  0  0  0  0  0  0  0  0  0
    5.4957    0.1271    0.0000 C   0  0  0  0  0  0  0  0  0  0  0  0
    4.7812   -0.2854    0.0000 C   0  0  0  0  0  0  0  0  0  0  0  0
    3.3523   -1.1104    0.0000 C   0  0  0  0  0  0  0  0  0  0  0  0
    2.6378   -1.5229    0.0000 C   0  0  0  0  0  0  0  0  0  0  0  0
    1.9233   -1.1104    0.0000 C   0  0  0  0  0  0  0  0  0  0  0  0
    0.3739   -3.7192    0.0000 C   0  0  0  0  0  0  0  0  0  0  0  0
    0.1190   -4.5038    0.0000 C   0  0  0  0  0  0  0  0  0  0  0  0
    0.4161   -5.9016    0.0000 H   0  0  0  0  0  0  0  0  0  0  0  0
   -1.4528   -7.0292    0.0000 H   0  0  0  0  0  0  0  0  0  0  0  0
   -2.0470   -4.2338    0.0000 H   0  0  0  0  0  0  0  0  0  0  0  0
   -1.5371   -2.6646    0.0000 H   0  0  0  0  0  0  0  0  0  0  0  0
    1.4358   -2.7631    0.0000 H   0  0  0  0  0  0  0  0  0  0  0  0
   -0.1712   -0.6979    0.0000 H   0  0  0  0  0  0  0  0  0  0  0  0
    2.6378    0.9521    0.0000 H   0  0  0  0  0  0  0  0  0  0  0  0
    3.3523    1.3646    0.0000 H   0  0  0  0  0  0  0  0  0  0  0  0
    4.7812    2.1896    0.0000 H   0  0  0  0  0  0  0  0  0  0  0  0
    6.2102    1.3646    0.0000 H   0  0  0  0  0  0  0  0  0  0  0  0
    6.2102   -0.2854    0.0000 H   0  0  0  0  0  0  0  0  0  0  0  0
    4.7812   -1.1104    0.0000 H   0  0  0  0  0  0  0  0  0  0  0  0
    4.0668   -1.5229    0.0000 H   0  0  0  0  0  0  0  0  0  0  0  0
    2.6378   -2.3479    0.0000 H   0  0  0  0  0  0  0  0  0  0  0  0
    1.1809   -3.5477    0.0000 H   0  0  0  0  0  0  0  0  0  0  0  0
    0.6710   -5.1169    0.0000 H   0  0  0  0  0  0  0  0  0  0  0  0
  1  2  2  0  0  0  0
  2  3  1  0  0  0  0
  3  4  1  0  0  0  0
  2  5  1  0  0  0  0
  5  6  4  0  0  0  0
  6  7  4  0  0  0  0
  7  8  4  0  0  0  0
  8  9  1  0  0  0  0
  9 10  2  0  0  0  0
  9 11  1  0  0  0  0
 11 12  1  0  0  0  0
 12 13  4  0  0  0  0
 13 14  4  0  0  0  0
 14 15  4  0  0  0  0
 15 16  4  0  0  0  0
 16 17  4  0  0  0  0
 17 18  1  0  0  0  0
 18 19  4  0  0  0  0
 19 20  4  0  0  0  0
 20 21  4  0  0  0  0
 21 22  4  0  0  0  0
 22 23  4  0  0  0  0
 18 23  4  0  0  0  0
 17 24  4  0  0  0  0
 24 25  4  0  0  0  0
 25 26  4  0  0  0  0
 12 26  4  0  0  0  0
 15 26  4  0  0  0  0
  8 27  4  0  0  0  0
 27 28  4  0  0  0  0
  5 28  4  0  0  0  0
  3 29  1  0  0  0  0
  4 30  1  0  0  0  0
  6 31  1  0  0  0  0
  7 32  1  0  0  0  0
 11 33  1  0  0  0  0
 13 34  1  0  0  0  0
 16 35  1  0  0  0  0
 19 36  1  0  0  0  0
 20 37  1  0  0  0  0
 21 38  1  0  0  0  0
 22 39  1  0  0  0  0
 23 40  1  0  0  0  0
 24 41  1  0  0  0  0
 25 42  1  0  0  0  0
 27 43  1  0  0  0  0
 28 44  1  0  0  0  0
M  END
>  <Molecule ChEMBL ID>
CHEMBL4211477

>  <Compound Key>
7b

>  <Active>
0

>  <StandardizerResult>
Dearomatize (ID: Dearomatize)
Clear Stereo (ID: ClearStereo)
Wedge Clean (ID: WedgeClean)
Mesomerize (ID: Mesomerize)
Tautomerize (ID: Tautomerize)
Aromatize (ID: Aromatize)
Add Explicit Hydrogens (ID: AddExplicitH)
Neutralize (ID: Neutralize)
Clean 2D (ID: Clean2D)


$$$$

  Mrv1551102232217592D          

 48 51  0  0  0  0            999 V2000
    6.2102    4.4104    0.0000 C   0  0  0  0  0  0  0  0  0  0  0  0
    6.2102    3.5854    0.0000 O   0  0  0  0  0  0  0  0  0  0  0  0
    5.4957    3.1729    0.0000 C   0  0  0  0  0  0  0  0  0  0  0  0
    5.4957    2.3479    0.0000 C   0  0  0  0  0  0  0  0  0  0  0  0
    4.7812    1.9354    0.0000 C   0  0  0  0  0  0  0  0  0  0  0  0
    4.0668    2.3479    0.0000 C   0  0  0  0  0  0  0  0  0  0  0  0
    3.3523    1.9354    0.0000 C   0  0  0  0  0  0  0  0  0  0  0  0
    3.3523    1.1104    0.0000 C   0  0  0  0  0  0  0  0  0  0  0  0
    2.6378    0.6979    0.0000 C   0  0  0  0  0  0  0  0  0  0  0  0
    1.9233    1.1104    0.0000 C   0  0  0  0  0  0  0  0  0  0  0  0
    1.1387    0.8555    0.0000 C   0  0  0  0  0  0  0  0  0  0  0  0
    0.8838    0.0709    0.0000 N   0  0  0  0  0  0  0  0  0  0  0  0
    1.4358   -0.5422    0.0000 C   0  0  0  0  0  0  0  0  0  0  0  0
    2.2428   -0.3707    0.0000 O   0  0  0  0  0  0  0  0  0  0  0  0
    1.1809   -1.3269    0.0000 C   0  0  0  0  0  0  0  0  0  0  0  0
    1.7329   -1.9400    0.0000 C   0  0  0  0  0  0  0  0  0  0  0  0
    1.4780   -2.7246    0.0000 C   0  0  0  0  0  0  0  0  0  0  0  0
    0.6710   -2.8961    0.0000 C   0  0  0  0  0  0  0  0  0  0  0  0
    0.4161   -3.6807    0.0000 C   0  0  0  0  0  0  0  0  0  0  0  0
    0.9681   -4.2938    0.0000 O   0  0  0  0  0  0  0  0  0  0  0  0
   -0.3909   -3.8522    0.0000 N   0  0  0  0  0  0  0  0  0  0  0  0
   -0.6458   -4.6369    0.0000 O   0  0  0  0  0  0  0  0  0  0  0  0
    0.1190   -2.2830    0.0000 C   0  0  0  0  0  0  0  0  0  0  0  0
    0.3739   -1.4984    0.0000 C   0  0  0  0  0  0  0  0  0  0  0  0
    0.6538    1.5229    0.0000 N   0  0  0  0  0  0  0  0  0  0  0  0
    1.1387    2.1904    0.0000 N   0  0  0  0  0  0  0  0  0  0  0  0
    1.9233    1.9354    0.0000 C   0  0  0  0  0  0  0  0  0  0  0  0
    2.6378    2.3479    0.0000 C   0  0  0  0  0  0  0  0  0  0  0  0
    4.0668    3.1729    0.0000 C   0  0  0  0  0  0  0  0  0  0  0  0
    4.7812    3.5854    0.0000 C   0  0  0  0  0  0  0  0  0  0  0  0
    7.0352    4.4104    0.0000 H   0  0  0  0  0  0  0  0  0  0  0  0
    6.2102    5.2354    0.0000 H   0  0  0  0  0  0  0  0  0  0  0  0
    5.3852    4.4104    0.0000 H   0  0  0  0  0  0  0  0  0  0  0  0
    6.2102    1.9354    0.0000 H   0  0  0  0  0  0  0  0  0  0  0  0
    4.7812    1.1104    0.0000 H   0  0  0  0  0  0  0  0  0  0  0  0
    4.0668    0.6979    0.0000 H   0  0  0  0  0  0  0  0  0  0  0  0
    2.6378   -0.1271    0.0000 H   0  0  0  0  0  0  0  0  0  0  0  0
    0.0768   -0.1007    0.0000 H   0  0  0  0  0  0  0  0  0  0  0  0
    2.5399   -1.7684    0.0000 H   0  0  0  0  0  0  0  0  0  0  0  0
    2.0300   -3.3377    0.0000 H   0  0  0  0  0  0  0  0  0  0  0  0
   -0.9429   -3.2392    0.0000 H   0  0  0  0  0  0  0  0  0  0  0  0
   -1.4528   -4.8084    0.0000 H   0  0  0  0  0  0  0  0  0  0  0  0
   -0.6880   -2.4545    0.0000 H   0  0  0  0  0  0  0  0  0  0  0  0
   -0.1781   -0.8853    0.0000 H   0  0  0  0  0  0  0  0  0  0  0  0
   -0.1712    1.5229    0.0000 H   0  0  0  0  0  0  0  0  0  0  0  0
    2.6378    3.1729    0.0000 H   0  0  0  0  0  0  0  0  0  0  0  0
    3.3523    3.5854    0.0000 H   0  0  0  0  0  0  0  0  0  0  0  0
    4.7812    4.4104    0.0000 H   0  0  0  0  0  0  0  0  0  0  0  0
  1  2  1  0  0  0  0
  2  3  1  0  0  0  0
  3  4  4  0  0  0  0
  4  5  4  0  0  0  0
  5  6  4  0  0  0  0
  6  7  1  0  0  0  0
  7  8  4  0  0  0  0
  8  9  4  0  0  0  0
  9 10  4  0  0  0  0
 10 11  4  0  0  0  0
 11 12  1  0  0  0  0
 12 13  1  0  0  0  0
 13 14  2  0  0  0  0
 13 15  1  0  0  0  0
 15 16  4  0  0  0  0
 16 17  4  0  0  0  0
 17 18  4  0  0  0  0
 18 19  1  0  0  0  0
 19 20  2  0  0  0  0
 19 21  1  0  0  0  0
 21 22  1  0  0  0  0
 18 23  4  0  0  0  0
 23 24  4  0  0  0  0
 15 24  4  0  0  0  0
 11 25  4  0  0  0  0
 25 26  4  0  0  0  0
 26 27  4  0  0  0  0
 10 27  4  0  0  0  0
 27 28  4  0  0  0  0
  7 28  4  0  0  0  0
  6 29  4  0  0  0  0
 29 30  4  0  0  0  0
  3 30  4  0  0  0  0
  1 31  1  0  0  0  0
  1 32  1  0  0  0  0
  1 33  1  0  0  0  0
  4 34  1  0  0  0  0
  5 35  1  0  0  0  0
  8 36  1  0  0  0  0
  9 37  1  0  0  0  0
 12 38  1  0  0  0  0
 16 39  1  0  0  0  0
 17 40  1  0  0  0  0
 21 41  1  0  0  0  0
 22 42  1  0  0  0  0
 23 43  1  0  0  0  0
 24 44  1  0  0  0  0
 25 45  1  0  0  0  0
 28 46  1  0  0  0  0
 29 47  1  0  0  0  0
 30 48  1  0  0  0  0
M  END
>  <Molecule ChEMBL ID>
CHEMBL4217830

>  <Compound Key>
7i

>  <Active>
0

>  <StandardizerResult>
Dearomatize (ID: Dearomatize)
Clear Stereo (ID: ClearStereo)
Wedge Clean (ID: WedgeClean)
Mesomerize (ID: Mesomerize)
Tautomerize (ID: Tautomerize)
Aromatize (ID: Aromatize)
Add Explicit Hydrogens (ID: AddExplicitH)
Neutralize (ID: Neutralize)
Clean 2D (ID: Clean2D)


$$$$

  Mrv1551102232217592D          

 44 46  0  0  0  0            999 V2000
    0.7152   -7.8379    0.0000 O   0  0  0  0  0  0  0  0  0  0  0  0
    0.0007   -7.4254    0.0000 C   0  0  0  0  0  0  0  0  0  0  0  0
    0.0007   -6.6004    0.0000 C   0  0  0  0  0  0  0  0  0  0  0  0
   -0.7138   -6.1879    0.0000 C   0  0  0  0  0  0  0  0  0  0  0  0
   -0.7138   -5.3629    0.0000 C   0  0  0  0  0  0  0  0  0  0  0  0
   -1.4282   -4.9504    0.0000 C   0  0  0  0  0  0  0  0  0  0  0  0
   -1.4282   -4.1254    0.0000 C   0  0  0  0  0  0  0  0  0  0  0  0
   -0.7138   -3.7129    0.0000 C   0  0  0  0  0  0  0  0  0  0  0  0
   -0.7138   -2.8879    0.0000 C   0  0  0  0  0  0  0  0  0  0  0  0
    0.0007   -2.4754    0.0000 N   0  0  0  0  0  0  0  0  0  0  0  0
    0.0007   -1.6504    0.0000 C   0  0  0  0  0  0  0  0  0  0  0  0
    0.7152   -1.2379    0.0000 C   0  0  0  0  0  0  0  0  0  0  0  0
    0.7152   -0.4129    0.0000 C   0  0  0  0  0  0  0  0  0  0  0  0
    1.4296   -0.0004    0.0000 C   0  0  0  0  0  0  0  0  0  0  0  0
    2.1441   -0.4129    0.0000 C   0  0  0  0  0  0  0  0  0  0  0  0
    2.8586   -0.0004    0.0000 C   0  0  0  0  0  0  0  0  0  0  0  0
    3.5730   -0.4129    0.0000 C   0  0  0  0  0  0  0  0  0  0  0  0
    3.5730   -1.2379    0.0000 C   0  0  0  0  0  0  0  0  0  0  0  0
    2.8586   -1.6504    0.0000 C   0  0  0  0  0  0  0  0  0  0  0  0
    2.1441   -1.2379    0.0000 C   0  0  0  0  0  0  0  0  0  0  0  0
    1.4296   -1.6504    0.0000 N   0  0  0  0  0  0  0  0  0  0  0  0
    0.0007   -4.1254    0.0000 C   0  0  0  0  0  0  0  0  0  0  0  0
    0.0007   -4.9504    0.0000 C   0  0  0  0  0  0  0  0  0  0  0  0
   -0.7138   -7.8379    0.0000 N   0  0  0  0  0  0  0  0  0  0  0  0
   -0.7138   -8.6629    0.0000 O   0  0  0  0  0  0  0  0  0  0  0  0
    0.7152   -6.1879    0.0000 H   0  0  0  0  0  0  0  0  0  0  0  0
   -1.4282   -6.6004    0.0000 H   0  0  0  0  0  0  0  0  0  0  0  0
   -2.1427   -5.3629    0.0000 H   0  0  0  0  0  0  0  0  0  0  0  0
   -2.1427   -3.7129    0.0000 H   0  0  0  0  0  0  0  0  0  0  0  0
   -1.1671   -2.1986    0.0000 H   0  0  0  0  0  0  0  0  0  0  0  0
   -1.5374   -2.8399    0.0000 H   0  0  0  0  0  0  0  0  0  0  0  0
    0.7152   -2.8879    0.0000 H   0  0  0  0  0  0  0  0  0  0  0  0
   -0.4527   -0.9611    0.0000 H   0  0  0  0  0  0  0  0  0  0  0  0
   -0.8229   -1.6024    0.0000 H   0  0  0  0  0  0  0  0  0  0  0  0
    0.0007   -0.0004    0.0000 H   0  0  0  0  0  0  0  0  0  0  0  0
    1.4296    0.8246    0.0000 H   0  0  0  0  0  0  0  0  0  0  0  0
    2.8586    0.8246    0.0000 H   0  0  0  0  0  0  0  0  0  0  0  0
    4.2875   -0.0004    0.0000 H   0  0  0  0  0  0  0  0  0  0  0  0
    4.2875   -1.6504    0.0000 H   0  0  0  0  0  0  0  0  0  0  0  0
    2.8586   -2.4754    0.0000 H   0  0  0  0  0  0  0  0  0  0  0  0
    0.7152   -3.7129    0.0000 H   0  0  0  0  0  0  0  0  0  0  0  0
    0.7152   -5.3629    0.0000 H   0  0  0  0  0  0  0  0  0  0  0  0
   -1.4282   -7.4254    0.0000 H   0  0  0  0  0  0  0  0  0  0  0  0
   -1.4282   -9.0754    0.0000 H   0  0  0  0  0  0  0  0  0  0  0  0
  1  2  2  0  0  0  0
  3  2  1  4  0  0  0
  3  4  2  0  0  0  0
  4  5  1  0  0  0  0
  5  6  4  0  0  0  0
  6  7  4  0  0  0  0
  7  8  4  0  0  0  0
  8  9  1  0  0  0  0
  9 10  1  0  0  0  0
 10 11  1  0  0  0  0
 11 12  1  0  0  0  0
 12 13  4  0  0  0  0
 13 14  4  0  0  0  0
 14 15  4  0  0  0  0
 15 16  4  0  0  0  0
 16 17  4  0  0  0  0
 17 18  4  0  0  0  0
 18 19  4  0  0  0  0
 19 20  4  0  0  0  0
 15 20  4  0  0  0  0
 20 21  4  0  0  0  0
 12 21  4  0  0  0  0
  8 22  4  0  0  0  0
 22 23  4  0  0  0  0
  5 23  4  0  0  0  0
  2 24  1  0  0  0  0
 24 25  1  0  0  0  0
  3 26  1  0  0  0  0
  4 27  1  0  0  0  0
  6 28  1  0  0  0  0
  7 29  1  0  0  0  0
  9 30  1  0  0  0  0
  9 31  1  0  0  0  0
 10 32  1  0  0  0  0
 11 33  1  0  0  0  0
 11 34  1  0  0  0  0
 13 35  1  0  0  0  0
 14 36  1  0  0  0  0
 16 37  1  0  0  0  0
 17 38  1  0  0  0  0
 18 39  1  0  0  0  0
 19 40  1  0  0  0  0
 22 41  1  0  0  0  0
 23 42  1  0  0  0  0
 24 43  1  0  0  0  0
 25 44  1  0  0  0  0
M  END
>  <Molecule ChEMBL ID>
CHEMBL4079007

>  <Compound Key>
4a

>  <Active>
0

>  <StandardizerResult>
Dearomatize (ID: Dearomatize)
Clear Stereo (ID: ClearStereo)
Wedge Clean (ID: WedgeClean)
Mesomerize (ID: Mesomerize)
Tautomerize (ID: Tautomerize)
Aromatize (ID: Aromatize)
Add Explicit Hydrogens (ID: AddExplicitH)
Neutralize (ID: Neutralize)
Clean 2D (ID: Clean2D)


$$$$

  Mrv1551102232217592D          

 38 40  0  0  0  0            999 V2000
    4.7812    4.4104    0.0000 O   0  0  0  0  0  0  0  0  0  0  0  0
    4.7812    3.5854    0.0000 C   0  0  0  0  0  0  0  0  0  0  0  0
    4.0668    3.1729    0.0000 C   0  0  0  0  0  0  0  0  0  0  0  0
    4.0668    2.3479    0.0000 C   0  0  0  0  0  0  0  0  0  0  0  0
    3.3523    1.9354    0.0000 C   0  0  0  0  0  0  0  0  0  0  0  0
    3.3523    1.1104    0.0000 C   0  0  0  0  0  0  0  0  0  0  0  0
    2.6378    0.6979    0.0000 C   0  0  0  0  0  0  0  0  0  0  0  0
    1.9233    1.1104    0.0000 C   0  0  0  0  0  0  0  0  0  0  0  0
    1.9233    1.9354    0.0000 C   0  0  0  0  0  0  0  0  0  0  0  0
    1.1387    2.1904    0.0000 C   0  0  0  0  0  0  0  0  0  0  0  0
    0.6538    1.5229    0.0000 C   0  0  0  0  0  0  0  0  0  0  0  0
    1.1387    0.8555    0.0000 N   0  0  0  0  0  0  0  0  0  0  0  0
    0.8838    0.0709    0.0000 S   0  0  0  0  0  0  0  0  0  0  0  0
    1.6684   -0.1841    0.0000 O   0  0  0  0  0  0  0  0  0  0  0  0
    0.0992    0.3258    0.0000 O   0  0  0  0  0  0  0  0  0  0  0  0
    0.6288   -0.7138    0.0000 C   0  0  0  0  0  0  0  0  0  0  0  0
    1.1809   -1.3269    0.0000 C   0  0  0  0  0  0  0  0  0  0  0  0
    0.9259   -2.1115    0.0000 C   0  0  0  0  0  0  0  0  0  0  0  0
    0.1190   -2.2830    0.0000 C   0  0  0  0  0  0  0  0  0  0  0  0
   -0.1360   -3.0676    0.0000 F   0  0  0  0  0  0  0  0  0  0  0  0
   -0.4331   -1.6699    0.0000 C   0  0  0  0  0  0  0  0  0  0  0  0
   -0.1781   -0.8853    0.0000 C   0  0  0  0  0  0  0  0  0  0  0  0
    2.6378    2.3479    0.0000 C   0  0  0  0  0  0  0  0  0  0  0  0
    5.4957    3.1729    0.0000 N   0  0  0  0  0  0  0  0  0  0  0  0
    6.2102    3.5854    0.0000 O   0  0  0  0  0  0  0  0  0  0  0  0
    3.3523    3.5854    0.0000 H   0  0  0  0  0  0  0  0  0  0  0  0
    4.7812    1.9354    0.0000 H   0  0  0  0  0  0  0  0  0  0  0  0
    4.0668    0.6979    0.0000 H   0  0  0  0  0  0  0  0  0  0  0  0
    2.6378   -0.1271    0.0000 H   0  0  0  0  0  0  0  0  0  0  0  0
    0.8838    2.9750    0.0000 H   0  0  0  0  0  0  0  0  0  0  0  0
   -0.1712    1.5229    0.0000 H   0  0  0  0  0  0  0  0  0  0  0  0
    1.9878   -1.1553    0.0000 H   0  0  0  0  0  0  0  0  0  0  0  0
    1.4780   -2.7246    0.0000 H   0  0  0  0  0  0  0  0  0  0  0  0
   -1.2400   -1.8414    0.0000 H   0  0  0  0  0  0  0  0  0  0  0  0
   -0.7302   -0.2722    0.0000 H   0  0  0  0  0  0  0  0  0  0  0  0
    2.6378    3.1729    0.0000 H   0  0  0  0  0  0  0  0  0  0  0  0
    5.4957    2.3479    0.0000 H   0  0  0  0  0  0  0  0  0  0  0  0
    6.9246    3.1729    0.0000 H   0  0  0  0  0  0  0  0  0  0  0  0
  1  2  2  0  0  0  0
  3  2  1  4  0  0  0
  3  4  2  0  0  0  0
  4  5  1  0  0  0  0
  5  6  4  0  0  0  0
  6  7  4  0  0  0  0
  7  8  4  0  0  0  0
  8  9  4  0  0  0  0
  9 10  4  0  0  0  0
 10 11  4  0  0  0  0
 11 12  4  0  0  0  0
  8 12  4  0  0  0  0
 12 13  1  0  0  0  0
 13 14  2  0  0  0  0
 13 15  2  0  0  0  0
 13 16  1  0  0  0  0
 16 17  4  0  0  0  0
 17 18  4  0  0  0  0
 18 19  4  0  0  0  0
 19 20  1  0  0  0  0
 19 21  4  0  0  0  0
 21 22  4  0  0  0  0
 16 22  4  0  0  0  0
  9 23  4  0  0  0  0
  5 23  4  0  0  0  0
  2 24  1  0  0  0  0
 24 25  1  0  0  0  0
  3 26  1  0  0  0  0
  4 27  1  0  0  0  0
  6 28  1  0  0  0  0
  7 29  1  0  0  0  0
 10 30  1  0  0  0  0
 11 31  1  0  0  0  0
 17 32  1  0  0  0  0
 18 33  1  0  0  0  0
 21 34  1  0  0  0  0
 22 35  1  0  0  0  0
 23 36  1  0  0  0  0
 24 37  1  0  0  0  0
 25 38  1  0  0  0  0
M  END
>  <Molecule ChEMBL ID>
CHEMBL2048751

>  <Compound Key>
13

>  <Active>
0

>  <StandardizerResult>
Dearomatize (ID: Dearomatize)
Clear Stereo (ID: ClearStereo)
Wedge Clean (ID: WedgeClean)
Mesomerize (ID: Mesomerize)
Tautomerize (ID: Tautomerize)
Aromatize (ID: Aromatize)
Add Explicit Hydrogens (ID: AddExplicitH)
Neutralize (ID: Neutralize)
Clean 2D (ID: Clean2D)


$$$$

  Mrv1551102232217592D          

 45 47  0  0  0  0            999 V2000
    1.6617   -7.2542    0.0000 O   0  0  0  0  0  0  0  0  0  0  0  0
    1.6617   -6.4292    0.0000 C   0  0  0  0  0  0  0  0  0  0  0  0
    0.9473   -6.0167    0.0000 C   0  0  0  0  0  0  0  0  0  0  0  0
    0.2328   -6.4292    0.0000 C   0  0  0  0  0  0  0  0  0  0  0  0
   -0.4817   -6.0167    0.0000 C   0  0  0  0  0  0  0  0  0  0  0  0
   -1.1961   -6.4292    0.0000 C   0  0  0  0  0  0  0  0  0  0  0  0
   -1.9106   -6.0167    0.0000 C   0  0  0  0  0  0  0  0  0  0  0  0
   -2.6643   -6.3523    0.0000 C   0  0  0  0  0  0  0  0  0  0  0  0
   -3.2163   -5.7392    0.0000 C   0  0  0  0  0  0  0  0  0  0  0  0
   -4.0368   -5.8254    0.0000 C   0  0  0  0  0  0  0  0  0  0  0  0
   -4.3724   -6.5791    0.0000 O   0  0  0  0  0  0  0  0  0  0  0  0
   -4.5217   -5.1580    0.0000 N   0  0  0  0  0  0  0  0  0  0  0  0
   -5.3422   -5.2442    0.0000 O   0  0  0  0  0  0  0  0  0  0  0  0
   -2.8038   -5.0247    0.0000 N   0  0  0  0  0  0  0  0  0  0  0  0
   -1.9969   -5.1962    0.0000 O   0  0  0  0  0  0  0  0  0  0  0  0
    2.3762   -6.0167    0.0000 N   0  0  0  0  0  0  0  0  0  0  0  0
    3.0907   -6.4292    0.0000 C   0  0  0  0  0  0  0  0  0  0  0  0
    3.8444   -6.0936    0.0000 N   0  0  0  0  0  0  0  0  0  0  0  0
    4.3964   -6.7067    0.0000 C   0  0  0  0  0  0  0  0  0  0  0  0
    5.2169   -6.6205    0.0000 C   0  0  0  0  0  0  0  0  0  0  0  0
    5.5524   -5.8668    0.0000 C   0  0  0  0  0  0  0  0  0  0  0  0
    6.3729   -5.7806    0.0000 C   0  0  0  0  0  0  0  0  0  0  0  0
    6.8578   -6.4480    0.0000 C   0  0  0  0  0  0  0  0  0  0  0  0
    6.5223   -7.2017    0.0000 C   0  0  0  0  0  0  0  0  0  0  0  0
    5.7018   -7.2879    0.0000 C   0  0  0  0  0  0  0  0  0  0  0  0
    3.9839   -7.4212    0.0000 C   0  0  0  0  0  0  0  0  0  0  0  0
    3.1769   -7.2497    0.0000 S   0  0  0  0  0  0  0  0  0  0  0  0
    1.3175   -5.2795    0.0000 H   0  0  0  0  0  0  0  0  0  0  0  0
    0.5770   -5.2795    0.0000 H   0  0  0  0  0  0  0  0  0  0  0  0
   -0.1375   -7.1665    0.0000 H   0  0  0  0  0  0  0  0  0  0  0  0
    0.6031   -7.1665    0.0000 H   0  0  0  0  0  0  0  0  0  0  0  0
   -0.1114   -5.2795    0.0000 H   0  0  0  0  0  0  0  0  0  0  0  0
   -0.8519   -5.2795    0.0000 H   0  0  0  0  0  0  0  0  0  0  0  0
   -1.5664   -7.1665    0.0000 H   0  0  0  0  0  0  0  0  0  0  0  0
   -0.8259   -7.1665    0.0000 H   0  0  0  0  0  0  0  0  0  0  0  0
   -2.8358   -7.1592    0.0000 H   0  0  0  0  0  0  0  0  0  0  0  0
   -4.1862   -4.4043    0.0000 H   0  0  0  0  0  0  0  0  0  0  0  0
   -5.8271   -4.5768    0.0000 H   0  0  0  0  0  0  0  0  0  0  0  0
    2.3762   -5.1917    0.0000 H   0  0  0  0  0  0  0  0  0  0  0  0
    5.0675   -5.1994    0.0000 H   0  0  0  0  0  0  0  0  0  0  0  0
    6.7085   -5.0269    0.0000 H   0  0  0  0  0  0  0  0  0  0  0  0
    7.6783   -6.3618    0.0000 H   0  0  0  0  0  0  0  0  0  0  0  0
    7.0072   -7.8691    0.0000 H   0  0  0  0  0  0  0  0  0  0  0  0
    5.3662   -8.0416    0.0000 H   0  0  0  0  0  0  0  0  0  0  0  0
    4.3194   -8.1749    0.0000 H   0  0  0  0  0  0  0  0  0  0  0  0
  1  2  2  0  0  0  0
  2  3  1  0  0  0  0
  3  4  1  0  0  0  0
  4  5  1  0  0  0  0
  5  6  1  0  0  0  0
  6  7  1  0  0  0  0
  7  8  4  0  0  0  0
  8  9  4  0  0  0  0
  9 10  1  0  0  0  0
 10 11  2  0  0  0  0
 10 12  1  0  0  0  0
 12 13  1  0  0  0  0
  9 14  4  0  0  0  0
 14 15  4  0  0  0  0
  7 15  4  0  0  0  0
  2 16  1  0  0  0  0
 16 17  1  0  0  0  0
 17 18  4  0  0  0  0
 18 19  4  0  0  0  0
 19 20  1  0  0  0  0
 20 21  4  0  0  0  0
 21 22  4  0  0  0  0
 22 23  4  0  0  0  0
 23 24  4  0  0  0  0
 24 25  4  0  0  0  0
 20 25  4  0  0  0  0
 19 26  4  0  0  0  0
 26 27  4  0  0  0  0
 17 27  4  0  0  0  0
  3 28  1  0  0  0  0
  3 29  1  0  0  0  0
  4 30  1  0  0  0  0
  4 31  1  0  0  0  0
  5 32  1  0  0  0  0
  5 33  1  0  0  0  0
  6 34  1  0  0  0  0
  6 35  1  0  0  0  0
  8 36  1  0  0  0  0
 12 37  1  0  0  0  0
 13 38  1  0  0  0  0
 16 39  1  0  0  0  0
 21 40  1  0  0  0  0
 22 41  1  0  0  0  0
 23 42  1  0  0  0  0
 24 43  1  0  0  0  0
 25 44  1  0  0  0  0
 26 45  1  0  0  0  0
M  END
>  <Molecule ChEMBL ID>
CHEMBL469134

>  <Compound Key>
6

>  <Active>
0

>  <StandardizerResult>
Dearomatize (ID: Dearomatize)
Clear Stereo (ID: ClearStereo)
Wedge Clean (ID: WedgeClean)
Mesomerize (ID: Mesomerize)
Tautomerize (ID: Tautomerize)
Aromatize (ID: Aromatize)
Add Explicit Hydrogens (ID: AddExplicitH)
Neutralize (ID: Neutralize)
Clean 2D (ID: Clean2D)


$$$$

  Mrv1551102232217592D          

 47 49  0  0  0  0            999 V2000
   -0.2922    0.6939    0.0000 N   0  0  0  0  0  0  0  0  0  0  0  0
    0.0434    1.4476    0.0000 C   0  0  0  0  0  0  0  0  0  0  0  0
   -0.4416    2.1151    0.0000 C   0  0  0  0  0  0  0  0  0  0  0  0
   -0.1060    2.8687    0.0000 C   0  0  0  0  0  0  0  0  0  0  0  0
    0.7145    2.9550    0.0000 C   0  0  0  0  0  0  0  0  0  0  0  0
    1.1994    2.2875    0.0000 C   0  0  0  0  0  0  0  0  0  0  0  0
    2.0199    2.3738    0.0000 C   0  0  0  0  0  0  0  0  0  0  0  0
    2.4324    3.0882    0.0000 C   0  0  0  0  0  0  0  0  0  0  0  0
    3.2394    2.9167    0.0000 S   0  0  0  0  0  0  0  0  0  0  0  0
    3.3256    2.0962    0.0000 C   0  0  0  0  0  0  0  0  0  0  0  0
    4.0401    1.6837    0.0000 N   0  0  0  0  0  0  0  0  0  0  0  0
    4.7545    2.0962    0.0000 C   0  0  0  0  0  0  0  0  0  0  0  0
    4.7545    2.9212    0.0000 O   0  0  0  0  0  0  0  0  0  0  0  0
    5.4690    1.6837    0.0000 C   0  0  0  0  0  0  0  0  0  0  0  0
    6.1835    2.0962    0.0000 C   0  0  0  0  0  0  0  0  0  0  0  0
    6.8979    1.6837    0.0000 C   0  0  0  0  0  0  0  0  0  0  0  0
    7.6124    2.0962    0.0000 C   0  0  0  0  0  0  0  0  0  0  0  0
    8.3269    1.6837    0.0000 C   0  0  0  0  0  0  0  0  0  0  0  0
    9.0806    2.0193    0.0000 C   0  0  0  0  0  0  0  0  0  0  0  0
    9.6326    1.4062    0.0000 C   0  0  0  0  0  0  0  0  0  0  0  0
   10.4531    1.4924    0.0000 C   0  0  0  0  0  0  0  0  0  0  0  0
   10.7886    2.2461    0.0000 O   0  0  0  0  0  0  0  0  0  0  0  0
   10.9380    0.8250    0.0000 N   0  0  0  0  0  0  0  0  0  0  0  0
   11.7585    0.9112    0.0000 O   0  0  0  0  0  0  0  0  0  0  0  0
    9.2201    0.6917    0.0000 N   0  0  0  0  0  0  0  0  0  0  0  0
    8.4131    0.8632    0.0000 O   0  0  0  0  0  0  0  0  0  0  0  0
    2.5719    1.7607    0.0000 N   0  0  0  0  0  0  0  0  0  0  0  0
    0.8638    1.5339    0.0000 C   0  0  0  0  0  0  0  0  0  0  0  0
   -1.1127    0.6077    0.0000 H   0  0  0  0  0  0  0  0  0  0  0  0
    0.1927    0.0265    0.0000 H   0  0  0  0  0  0  0  0  0  0  0  0
   -1.2620    2.0288    0.0000 H   0  0  0  0  0  0  0  0  0  0  0  0
   -0.5909    3.5362    0.0000 H   0  0  0  0  0  0  0  0  0  0  0  0
    1.0500    3.7086    0.0000 H   0  0  0  0  0  0  0  0  0  0  0  0
    2.0968    3.8419    0.0000 H   0  0  0  0  0  0  0  0  0  0  0  0
    4.0401    0.8587    0.0000 H   0  0  0  0  0  0  0  0  0  0  0  0
    5.0987    0.9465    0.0000 H   0  0  0  0  0  0  0  0  0  0  0  0
    5.8393    0.9465    0.0000 H   0  0  0  0  0  0  0  0  0  0  0  0
    6.5537    2.8335    0.0000 H   0  0  0  0  0  0  0  0  0  0  0  0
    5.8132    2.8335    0.0000 H   0  0  0  0  0  0  0  0  0  0  0  0
    6.5277    0.9465    0.0000 H   0  0  0  0  0  0  0  0  0  0  0  0
    7.2682    0.9465    0.0000 H   0  0  0  0  0  0  0  0  0  0  0  0
    7.9827    2.8335    0.0000 H   0  0  0  0  0  0  0  0  0  0  0  0
    7.2422    2.8335    0.0000 H   0  0  0  0  0  0  0  0  0  0  0  0
    9.2521    2.8263    0.0000 H   0  0  0  0  0  0  0  0  0  0  0  0
   10.6024    0.0713    0.0000 H   0  0  0  0  0  0  0  0  0  0  0  0
   12.2434    0.2438    0.0000 H   0  0  0  0  0  0  0  0  0  0  0  0
    1.3488    0.8664    0.0000 H   0  0  0  0  0  0  0  0  0  0  0  0
  1  2  1  0  0  0  0
  2  3  4  0  0  0  0
  3  4  4  0  0  0  0
  4  5  4  0  0  0  0
  5  6  4  0  0  0  0
  6  7  1  0  0  0  0
  7  8  4  0  0  0  0
  8  9  4  0  0  0  0
  9 10  4  0  0  0  0
 10 11  1  0  0  0  0
 11 12  1  0  0  0  0
 12 13  2  0  0  0  0
 12 14  1  0  0  0  0
 14 15  1  0  0  0  0
 15 16  1  0  0  0  0
 16 17  1  0  0  0  0
 17 18  1  0  0  0  0
 18 19  4  0  0  0  0
 19 20  4  0  0  0  0
 20 21  1  0  0  0  0
 21 22  2  0  0  0  0
 21 23  1  0  0  0  0
 23 24  1  0  0  0  0
 20 25  4  0  0  0  0
 25 26  4  0  0  0  0
 18 26  4  0  0  0  0
 10 27  4  0  0  0  0
  7 27  4  0  0  0  0
  6 28  4  0  0  0  0
  2 28  4  0  0  0  0
  1 29  1  0  0  0  0
  1 30  1  0  0  0  0
  3 31  1  0  0  0  0
  4 32  1  0  0  0  0
  5 33  1  0  0  0  0
  8 34  1  0  0  0  0
 11 35  1  0  0  0  0
 14 36  1  0  0  0  0
 14 37  1  0  0  0  0
 15 38  1  0  0  0  0
 15 39  1  0  0  0  0
 16 40  1  0  0  0  0
 16 41  1  0  0  0  0
 17 42  1  0  0  0  0
 17 43  1  0  0  0  0
 19 44  1  0  0  0  0
 23 45  1  0  0  0  0
 24 46  1  0  0  0  0
 28 47  1  0  0  0  0
M  END
>  <Molecule ChEMBL ID>
CHEMBL511432

>  <Compound Key>
7

>  <Active>
0

>  <StandardizerResult>
Dearomatize (ID: Dearomatize)
Clear Stereo (ID: ClearStereo)
Wedge Clean (ID: WedgeClean)
Mesomerize (ID: Mesomerize)
Tautomerize (ID: Tautomerize)
Aromatize (ID: Aromatize)
Add Explicit Hydrogens (ID: AddExplicitH)
Neutralize (ID: Neutralize)
Clean 2D (ID: Clean2D)


$$$$

  Mrv1551102232217592D          

 56 58  0  0  0  0            999 V2000
    4.9998   -1.2487    0.0000 C   0  0  0  0  0  0  0  0  0  0  0  0
    4.2854   -0.8362    0.0000 O   0  0  0  0  0  0  0  0  0  0  0  0
    4.2854   -0.0112    0.0000 C   0  0  0  0  0  0  0  0  0  0  0  0
    3.5709    0.4013    0.0000 C   0  0  0  0  0  0  0  0  0  0  0  0
    3.5709    1.2263    0.0000 C   0  0  0  0  0  0  0  0  0  0  0  0
    4.2854    1.6388    0.0000 C   0  0  0  0  0  0  0  0  0  0  0  0
    4.2854    2.4638    0.0000 N   0  0  0  0  0  0  0  0  0  0  0  0
    4.9998    2.8763    0.0000 C   0  0  0  0  0  0  0  0  0  0  0  0
    3.5709    2.8763    0.0000 C   0  0  0  0  0  0  0  0  0  0  0  0
    2.8564    2.4638    0.0000 N   0  0  0  0  0  0  0  0  0  0  0  0
    2.1419    2.8763    0.0000 C   0  0  0  0  0  0  0  0  0  0  0  0
    1.4275    2.4638    0.0000 C   0  0  0  0  0  0  0  0  0  0  0  0
    2.1419    3.7013    0.0000 N   0  0  0  0  0  0  0  0  0  0  0  0
    2.8564    4.1138    0.0000 C   0  0  0  0  0  0  0  0  0  0  0  0
    2.8564    4.9388    0.0000 C   0  0  0  0  0  0  0  0  0  0  0  0
    3.5709    5.3513    0.0000 C   0  0  0  0  0  0  0  0  0  0  0  0
    4.2854    4.9388    0.0000 C   0  0  0  0  0  0  0  0  0  0  0  0
    4.2854    4.1138    0.0000 C   0  0  0  0  0  0  0  0  0  0  0  0
    3.5709    3.7013    0.0000 C   0  0  0  0  0  0  0  0  0  0  0  0
    4.9998    1.2263    0.0000 C   0  0  0  0  0  0  0  0  0  0  0  0
    4.9998    0.4013    0.0000 C   0  0  0  0  0  0  0  0  0  0  0  0
    5.7143   -0.0112    0.0000 O   0  0  0  0  0  0  0  0  0  0  0  0
    6.4288    0.4013    0.0000 C   0  0  0  0  0  0  0  0  0  0  0  0
    7.1432   -0.0112    0.0000 C   0  0  0  0  0  0  0  0  0  0  0  0
    7.8577    0.4013    0.0000 C   0  0  0  0  0  0  0  0  0  0  0  0
    8.5722   -0.0112    0.0000 C   0  0  0  0  0  0  0  0  0  0  0  0
    9.2867    0.4013    0.0000 C   0  0  0  0  0  0  0  0  0  0  0  0
    9.2867    1.2263    0.0000 O   0  0  0  0  0  0  0  0  0  0  0  0
   10.0011   -0.0112    0.0000 N   0  0  0  0  0  0  0  0  0  0  0  0
   10.7156    0.4013    0.0000 O   0  0  0  0  0  0  0  0  0  0  0  0
    4.5873   -1.9631    0.0000 H   0  0  0  0  0  0  0  0  0  0  0  0
    5.7143   -1.6612    0.0000 H   0  0  0  0  0  0  0  0  0  0  0  0
    5.4123   -0.5342    0.0000 H   0  0  0  0  0  0  0  0  0  0  0  0
    2.8564   -0.0112    0.0000 H   0  0  0  0  0  0  0  0  0  0  0  0
    2.8564    1.6388    0.0000 H   0  0  0  0  0  0  0  0  0  0  0  0
    5.4123    2.1619    0.0000 H   0  0  0  0  0  0  0  0  0  0  0  0
    5.7143    3.2888    0.0000 H   0  0  0  0  0  0  0  0  0  0  0  0
    4.5873    3.5908    0.0000 H   0  0  0  0  0  0  0  0  0  0  0  0
    1.0150    3.1783    0.0000 H   0  0  0  0  0  0  0  0  0  0  0  0
    0.7130    2.0513    0.0000 H   0  0  0  0  0  0  0  0  0  0  0  0
    1.8400    1.7494    0.0000 H   0  0  0  0  0  0  0  0  0  0  0  0
    2.1419    5.3513    0.0000 H   0  0  0  0  0  0  0  0  0  0  0  0
    3.5709    6.1763    0.0000 H   0  0  0  0  0  0  0  0  0  0  0  0
    4.9998    5.3513    0.0000 H   0  0  0  0  0  0  0  0  0  0  0  0
    5.0822    4.3273    0.0000 H   0  0  0  0  0  0  0  0  0  0  0  0
    5.7143    1.6388    0.0000 H   0  0  0  0  0  0  0  0  0  0  0  0
    6.7990    1.1386    0.0000 H   0  0  0  0  0  0  0  0  0  0  0  0
    6.0585    1.1386    0.0000 H   0  0  0  0  0  0  0  0  0  0  0  0
    6.7730   -0.7484    0.0000 H   0  0  0  0  0  0  0  0  0  0  0  0
    7.5135   -0.7484    0.0000 H   0  0  0  0  0  0  0  0  0  0  0  0
    8.2280    1.1386    0.0000 H   0  0  0  0  0  0  0  0  0  0  0  0
    7.4875    1.1386    0.0000 H   0  0  0  0  0  0  0  0  0  0  0  0
    8.2019   -0.7484    0.0000 H   0  0  0  0  0  0  0  0  0  0  0  0
    8.9424   -0.7484    0.0000 H   0  0  0  0  0  0  0  0  0  0  0  0
   10.0011   -0.8362    0.0000 H   0  0  0  0  0  0  0  0  0  0  0  0
   11.4301   -0.0112    0.0000 H   0  0  0  0  0  0  0  0  0  0  0  0
  1  2  1  0  0  0  0
  2  3  1  0  0  0  0
  3  4  4  0  0  0  0
  4  5  4  0  0  0  0
  5  6  4  0  0  0  0
  6  7  1  0  0  0  0
  7  8  1  0  0  0  0
  7  9  1  0  0  0  0
  9 10  4  0  0  0  0
 10 11  4  0  0  0  0
 11 12  1  0  0  0  0
 11 13  4  0  0  0  0
 13 14  4  0  0  0  0
 14 15  4  0  0  0  0
 15 16  4  0  0  0  0
 16 17  4  0  0  0  0
 17 18  4  0  0  0  0
 18 19  4  0  0  0  0
  9 19  4  0  0  0  0
 14 19  4  0  0  0  0
  6 20  4  0  0  0  0
 20 21  4  0  0  0  0
  3 21  4  0  0  0  0
 21 22  1  0  0  0  0
 22 23  1  0  0  0  0
 23 24  1  0  0  0  0
 24 25  1  0  0  0  0
 25 26  1  0  0  0  0
 26 27  1  0  0  0  0
 27 28  2  0  0  0  0
 27 29  1  0  0  0  0
 29 30  1  0  0  0  0
  1 31  1  0  0  0  0
  1 32  1  0  0  0  0
  1 33  1  0  0  0  0
  4 34  1  0  0  0  0
  5 35  1  0  0  0  0
  8 36  1  0  0  0  0
  8 37  1  0  0  0  0
  8 38  1  0  0  0  0
 12 39  1  0  0  0  0
 12 40  1  0  0  0  0
 12 41  1  0  0  0  0
 15 42  1  0  0  0  0
 16 43  1  0  0  0  0
 17 44  1  0  0  0  0
 18 45  1  0  0  0  0
 20 46  1  0  0  0  0
 23 47  1  0  0  0  0
 23 48  1  0  0  0  0
 24 49  1  0  0  0  0
 24 50  1  0  0  0  0
 25 51  1  0  0  0  0
 25 52  1  0  0  0  0
 26 53  1  0  0  0  0
 26 54  1  0  0  0  0
 29 55  1  0  0  0  0
 30 56  1  0  0  0  0
M  END
>  <Molecule ChEMBL ID>
CHEMBL3775654

>  <Compound Key>
23bc

>  <Active>
0

>  <StandardizerResult>
Dearomatize (ID: Dearomatize)
Clear Stereo (ID: ClearStereo)
Wedge Clean (ID: WedgeClean)
Mesomerize (ID: Mesomerize)
Tautomerize (ID: Tautomerize)
Aromatize (ID: Aromatize)
Add Explicit Hydrogens (ID: AddExplicitH)
Neutralize (ID: Neutralize)
Clean 2D (ID: Clean2D)


$$$$

  Mrv1551102232217592D          

 61 62  0  0  0  0            999 V2000
    0.8300   10.1596    0.0000 C   0  0  0  0  0  0  0  0  0  0  0  0
    0.0095   10.2458    0.0000 C   0  0  0  0  0  0  0  0  0  0  0  0
   -0.4754    9.5784    0.0000 N   0  0  0  0  0  0  0  0  0  0  0  0
   -0.1399    8.8247    0.0000 C   0  0  0  0  0  0  0  0  0  0  0  0
   -0.6248    8.1573    0.0000 C   0  0  0  0  0  0  0  0  0  0  0  0
   -1.2959    9.6646    0.0000 C   0  0  0  0  0  0  0  0  0  0  0  0
   -1.7808    8.9972    0.0000 C   0  0  0  0  0  0  0  0  0  0  0  0
   -2.6013    9.0834    0.0000 N   0  0  0  0  0  0  0  0  0  0  0  0
   -3.0862    8.4160    0.0000 C   0  0  0  0  0  0  0  0  0  0  0  0
   -3.9067    8.5022    0.0000 O   0  0  0  0  0  0  0  0  0  0  0  0
   -2.7507    7.6623    0.0000 C   0  0  0  0  0  0  0  0  0  0  0  0
   -1.9302    7.5761    0.0000 C   0  0  0  0  0  0  0  0  0  0  0  0
   -1.5946    6.8224    0.0000 C   0  0  0  0  0  0  0  0  0  0  0  0
   -2.0796    6.1550    0.0000 C   0  0  0  0  0  0  0  0  0  0  0  0
   -1.7440    5.4013    0.0000 C   0  0  0  0  0  0  0  0  0  0  0  0
   -0.9370    5.2298    0.0000 C   0  0  0  0  0  0  0  0  0  0  0  0
   -0.8508    4.4093    0.0000 N   0  0  0  0  0  0  0  0  0  0  0  0
   -0.1363    3.9968    0.0000 C   0  0  0  0  0  0  0  0  0  0  0  0
    0.5781    4.4093    0.0000 C   0  0  0  0  0  0  0  0  0  0  0  0
    1.2926    3.9968    0.0000 C   0  0  0  0  0  0  0  0  0  0  0  0
    2.0071    4.4093    0.0000 C   0  0  0  0  0  0  0  0  0  0  0  0
    2.7216    3.9968    0.0000 C   0  0  0  0  0  0  0  0  0  0  0  0
    3.4360    4.4093    0.0000 C   0  0  0  0  0  0  0  0  0  0  0  0
    3.4360    5.2343    0.0000 O   0  0  0  0  0  0  0  0  0  0  0  0
    4.1505    3.9968    0.0000 N   0  0  0  0  0  0  0  0  0  0  0  0
    4.8650    4.4093    0.0000 O   0  0  0  0  0  0  0  0  0  0  0  0
   -1.6045    4.0737    0.0000 N   0  0  0  0  0  0  0  0  0  0  0  0
   -2.1565    4.6868    0.0000 N   0  0  0  0  0  0  0  0  0  0  0  0
   -2.9000    6.2412    0.0000 C   0  0  0  0  0  0  0  0  0  0  0  0
   -3.2356    6.9949    0.0000 N   0  0  0  0  0  0  0  0  0  0  0  0
    0.7437    9.3391    0.0000 H   0  0  0  0  0  0  0  0  0  0  0  0
    1.6505   10.0734    0.0000 H   0  0  0  0  0  0  0  0  0  0  0  0
    0.9162   10.9801    0.0000 H   0  0  0  0  0  0  0  0  0  0  0  0
    0.0479   11.0699    0.0000 H   0  0  0  0  0  0  0  0  0  0  0  0
   -0.6286   10.7687    0.0000 H   0  0  0  0  0  0  0  0  0  0  0  0
    0.5546    8.3794    0.0000 H   0  0  0  0  0  0  0  0  0  0  0  0
    0.6320    9.1159    0.0000 H   0  0  0  0  0  0  0  0  0  0  0  0
   -1.2922    8.6422    0.0000 H   0  0  0  0  0  0  0  0  0  0  0  0
   -1.1097    7.4898    0.0000 H   0  0  0  0  0  0  0  0  0  0  0  0
    0.0426    7.6724    0.0000 H   0  0  0  0  0  0  0  0  0  0  0  0
   -1.2575   10.4887    0.0000 H   0  0  0  0  0  0  0  0  0  0  0  0
   -1.9340   10.1875    0.0000 H   0  0  0  0  0  0  0  0  0  0  0  0
   -2.0765    8.2270    0.0000 H   0  0  0  0  0  0  0  0  0  0  0  0
   -2.1164    9.7509    0.0000 H   0  0  0  0  0  0  0  0  0  0  0  0
   -3.2688    9.5684    0.0000 H   0  0  0  0  0  0  0  0  0  0  0  0
   -2.4151    6.9086    0.0000 H   0  0  0  0  0  0  0  0  0  0  0  0
   -0.9272    6.3375    0.0000 H   0  0  0  0  0  0  0  0  0  0  0  0
   -0.3239    5.7818    0.0000 H   0  0  0  0  0  0  0  0  0  0  0  0
   -0.5066    3.2595    0.0000 H   0  0  0  0  0  0  0  0  0  0  0  0
    0.2339    3.2595    0.0000 H   0  0  0  0  0  0  0  0  0  0  0  0
    0.9484    5.1465    0.0000 H   0  0  0  0  0  0  0  0  0  0  0  0
    0.2079    5.1465    0.0000 H   0  0  0  0  0  0  0  0  0  0  0  0
    0.9224    3.2595    0.0000 H   0  0  0  0  0  0  0  0  0  0  0  0
    1.6629    3.2595    0.0000 H   0  0  0  0  0  0  0  0  0  0  0  0
    2.3773    5.1465    0.0000 H   0  0  0  0  0  0  0  0  0  0  0  0
    1.6368    5.1465    0.0000 H   0  0  0  0  0  0  0  0  0  0  0  0
    2.3513    3.2595    0.0000 H   0  0  0  0  0  0  0  0  0  0  0  0
    3.0918    3.2595    0.0000 H   0  0  0  0  0  0  0  0  0  0  0  0
    4.1505    3.1718    0.0000 H   0  0  0  0  0  0  0  0  0  0  0  0
    5.5794    3.9968    0.0000 H   0  0  0  0  0  0  0  0  0  0  0  0
   -3.3850    5.5738    0.0000 H   0  0  0  0  0  0  0  0  0  0  0  0
  1  2  1  0  0  0  0
  2  3  1  0  0  0  0
  3  4  1  0  0  0  0
  4  5  1  0  0  0  0
  3  6  1  0  0  0  0
  6  7  1  0  0  0  0
  7  8  1  0  0  0  0
  8  9  1  0  0  0  0
  9 10  2  0  0  0  0
  9 11  1  0  0  0  0
 11 12  4  0  0  0  0
 12 13  4  0  0  0  0
 13 14  4  0  0  0  0
 14 15  1  0  0  0  0
 15 16  4  0  0  0  0
 16 17  4  0  0  0  0
 17 18  1  0  0  0  0
 18 19  1  0  0  0  0
 19 20  1  0  0  0  0
 20 21  1  0  0  0  0
 21 22  1  0  0  0  0
 22 23  1  0  0  0  0
 23 24  2  0  0  0  0
 23 25  1  0  0  0  0
 25 26  1  0  0  0  0
 17 27  4  0  0  0  0
 27 28  4  0  0  0  0
 15 28  4  0  0  0  0
 14 29  4  0  0  0  0
 29 30  4  0  0  0  0
 11 30  4  0  0  0  0
  1 31  1  0  0  0  0
  1 32  1  0  0  0  0
  1 33  1  0  0  0  0
  2 34  1  0  0  0  0
  2 35  1  0  0  0  0
  4 36  1  0  0  0  0
  4 37  1  0  0  0  0
  5 38  1  0  0  0  0
  5 39  1  0  0  0  0
  5 40  1  0  0  0  0
  6 41  1  0  0  0  0
  6 42  1  0  0  0  0
  7 43  1  0  0  0  0
  7 44  1  0  0  0  0
  8 45  1  0  0  0  0
 12 46  1  0  0  0  0
 13 47  1  0  0  0  0
 16 48  1  0  0  0  0
 18 49  1  0  0  0  0
 18 50  1  0  0  0  0
 19 51  1  0  0  0  0
 19 52  1  0  0  0  0
 20 53  1  0  0  0  0
 20 54  1  0  0  0  0
 21 55  1  0  0  0  0
 21 56  1  0  0  0  0
 22 57  1  0  0  0  0
 22 58  1  0  0  0  0
 25 59  1  0  0  0  0
 26 60  1  0  0  0  0
 29 61  1  0  0  0  0
M  END
>  <Molecule ChEMBL ID>
CHEMBL4084499

>  <Compound Key>
11a

>  <Active>
0

>  <StandardizerResult>
Dearomatize (ID: Dearomatize)
Clear Stereo (ID: ClearStereo)
Wedge Clean (ID: WedgeClean)
Mesomerize (ID: Mesomerize)
Tautomerize (ID: Tautomerize)
Aromatize (ID: Aromatize)
Add Explicit Hydrogens (ID: AddExplicitH)
Neutralize (ID: Neutralize)
Clean 2D (ID: Clean2D)


$$$$

  Mrv1551102232217592D          

 50 53  0  0  0  0            999 V2000
    4.7812    4.4104    0.0000 C   0  0  0  0  0  0  0  0  0  0  0  0
    4.7812    3.5854    0.0000 C   0  0  0  0  0  0  0  0  0  0  0  0
    5.4957    3.1729    0.0000 C   0  0  0  0  0  0  0  0  0  0  0  0
    5.4957    2.3479    0.0000 C   0  0  0  0  0  0  0  0  0  0  0  0
    6.2102    1.9354    0.0000 C   0  0  0  0  0  0  0  0  0  0  0  0
    4.7812    1.9354    0.0000 C   0  0  0  0  0  0  0  0  0  0  0  0
    4.0668    2.3479    0.0000 C   0  0  0  0  0  0  0  0  0  0  0  0
    3.3523    1.9354    0.0000 C   0  0  0  0  0  0  0  0  0  0  0  0
    3.3523    1.1104    0.0000 C   0  0  0  0  0  0  0  0  0  0  0  0
    2.6378    0.6979    0.0000 C   0  0  0  0  0  0  0  0  0  0  0  0
    1.9233    1.1104    0.0000 C   0  0  0  0  0  0  0  0  0  0  0  0
    1.1387    0.8555    0.0000 C   0  0  0  0  0  0  0  0  0  0  0  0
    0.8838    0.0709    0.0000 N   0  0  0  0  0  0  0  0  0  0  0  0
    1.4358   -0.5422    0.0000 C   0  0  0  0  0  0  0  0  0  0  0  0
    2.2428   -0.3707    0.0000 O   0  0  0  0  0  0  0  0  0  0  0  0
    1.1809   -1.3269    0.0000 C   0  0  0  0  0  0  0  0  0  0  0  0
    1.7329   -1.9400    0.0000 C   0  0  0  0  0  0  0  0  0  0  0  0
    1.4780   -2.7246    0.0000 C   0  0  0  0  0  0  0  0  0  0  0  0
    0.6710   -2.8961    0.0000 C   0  0  0  0  0  0  0  0  0  0  0  0
    0.4161   -3.6807    0.0000 C   0  0  0  0  0  0  0  0  0  0  0  0
    0.9681   -4.2938    0.0000 O   0  0  0  0  0  0  0  0  0  0  0  0
   -0.3909   -3.8522    0.0000 N   0  0  0  0  0  0  0  0  0  0  0  0
   -0.6459   -4.6369    0.0000 O   0  0  0  0  0  0  0  0  0  0  0  0
    0.1190   -2.2830    0.0000 C   0  0  0  0  0  0  0  0  0  0  0  0
    0.3739   -1.4984    0.0000 C   0  0  0  0  0  0  0  0  0  0  0  0
    0.6538    1.5229    0.0000 N   0  0  0  0  0  0  0  0  0  0  0  0
    1.1387    2.1904    0.0000 N   0  0  0  0  0  0  0  0  0  0  0  0
    1.9233    1.9354    0.0000 C   0  0  0  0  0  0  0  0  0  0  0  0
    2.6378    2.3479    0.0000 C   0  0  0  0  0  0  0  0  0  0  0  0
    4.0668    3.1729    0.0000 C   0  0  0  0  0  0  0  0  0  0  0  0
    5.6062    4.4104    0.0000 H   0  0  0  0  0  0  0  0  0  0  0  0
    4.7812    5.2354    0.0000 H   0  0  0  0  0  0  0  0  0  0  0  0
    3.9562    4.4104    0.0000 H   0  0  0  0  0  0  0  0  0  0  0  0
    6.2102    3.5854    0.0000 H   0  0  0  0  0  0  0  0  0  0  0  0
    5.7977    1.2209    0.0000 H   0  0  0  0  0  0  0  0  0  0  0  0
    6.9246    1.5229    0.0000 H   0  0  0  0  0  0  0  0  0  0  0  0
    6.6227    2.6499    0.0000 H   0  0  0  0  0  0  0  0  0  0  0  0
    4.7812    1.1104    0.0000 H   0  0  0  0  0  0  0  0  0  0  0  0
    4.0668    0.6979    0.0000 H   0  0  0  0  0  0  0  0  0  0  0  0
    2.6378   -0.1271    0.0000 H   0  0  0  0  0  0  0  0  0  0  0  0
    0.0768   -0.1007    0.0000 H   0  0  0  0  0  0  0  0  0  0  0  0
    2.5399   -1.7684    0.0000 H   0  0  0  0  0  0  0  0  0  0  0  0
    2.0300   -3.3377    0.0000 H   0  0  0  0  0  0  0  0  0  0  0  0
   -0.9429   -3.2392    0.0000 H   0  0  0  0  0  0  0  0  0  0  0  0
   -1.4528   -4.8084    0.0000 H   0  0  0  0  0  0  0  0  0  0  0  0
   -0.6880   -2.4545    0.0000 H   0  0  0  0  0  0  0  0  0  0  0  0
   -0.1781   -0.8853    0.0000 H   0  0  0  0  0  0  0  0  0  0  0  0
   -0.1712    1.5229    0.0000 H   0  0  0  0  0  0  0  0  0  0  0  0
    2.6378    3.1729    0.0000 H   0  0  0  0  0  0  0  0  0  0  0  0
    3.3523    3.5854    0.0000 H   0  0  0  0  0  0  0  0  0  0  0  0
  1  2  1  0  0  0  0
  2  3  4  0  0  0  0
  3  4  4  0  0  0  0
  4  5  1  0  0  0  0
  4  6  4  0  0  0  0
  6  7  4  0  0  0  0
  7  8  1  0  0  0  0
  8  9  4  0  0  0  0
  9 10  4  0  0  0  0
 10 11  4  0  0  0  0
 11 12  4  0  0  0  0
 12 13  1  0  0  0  0
 13 14  1  0  0  0  0
 14 15  2  0  0  0  0
 14 16  1  0  0  0  0
 16 17  4  0  0  0  0
 17 18  4  0  0  0  0
 18 19  4  0  0  0  0
 19 20  1  0  0  0  0
 20 21  2  0  0  0  0
 20 22  1  0  0  0  0
 22 23  1  0  0  0  0
 19 24  4  0  0  0  0
 24 25  4  0  0  0  0
 16 25  4  0  0  0  0
 12 26  4  0  0  0  0
 26 27  4  0  0  0  0
 27 28  4  0  0  0  0
 11 28  4  0  0  0  0
 28 29  4  0  0  0  0
  8 29  4  0  0  0  0
  7 30  4  0  0  0  0
  2 30  4  0  0  0  0
  1 31  1  0  0  0  0
  1 32  1  0  0  0  0
  1 33  1  0  0  0  0
  3 34  1  0  0  0  0
  5 35  1  0  0  0  0
  5 36  1  0  0  0  0
  5 37  1  0  0  0  0
  6 38  1  0  0  0  0
  9 39  1  0  0  0  0
 10 40  1  0  0  0  0
 13 41  1  0  0  0  0
 17 42  1  0  0  0  0
 18 43  1  0  0  0  0
 22 44  1  0  0  0  0
 23 45  1  0  0  0  0
 24 46  1  0  0  0  0
 25 47  1  0  0  0  0
 26 48  1  0  0  0  0
 29 49  1  0  0  0  0
 30 50  1  0  0  0  0
M  END
>  <Molecule ChEMBL ID>
CHEMBL4210578

>  <Compound Key>
7u

>  <Active>
0

>  <StandardizerResult>
Dearomatize (ID: Dearomatize)
Clear Stereo (ID: ClearStereo)
Wedge Clean (ID: WedgeClean)
Mesomerize (ID: Mesomerize)
Tautomerize (ID: Tautomerize)
Aromatize (ID: Aromatize)
Add Explicit Hydrogens (ID: AddExplicitH)
Neutralize (ID: Neutralize)
Clean 2D (ID: Clean2D)


$$$$

  Mrv1551102232217592D          

 44 47  0  0  0  0            999 V2000
   -1.7499   -5.6315    0.0000 O   0  0  0  0  0  0  0  0  0  0  0  0
   -0.9429   -5.4600    0.0000 C   0  0  0  0  0  0  0  0  0  0  0  0
   -0.3909   -6.0731    0.0000 N   0  0  0  0  0  0  0  0  0  0  0  0
   -0.6459   -6.8577    0.0000 O   0  0  0  0  0  0  0  0  0  0  0  0
   -0.6880   -4.6754    0.0000 C   0  0  0  0  0  0  0  0  0  0  0  0
   -1.2400   -4.0623    0.0000 C   0  0  0  0  0  0  0  0  0  0  0  0
   -0.9851   -3.2777    0.0000 C   0  0  0  0  0  0  0  0  0  0  0  0
   -0.1781   -3.1061    0.0000 C   0  0  0  0  0  0  0  0  0  0  0  0
    0.0768   -2.3215    0.0000 C   0  0  0  0  0  0  0  0  0  0  0  0
   -0.4752   -1.7084    0.0000 O   0  0  0  0  0  0  0  0  0  0  0  0
    0.8838   -2.1500    0.0000 N   0  0  0  0  0  0  0  0  0  0  0  0
    1.1387   -1.3654    0.0000 C   0  0  0  0  0  0  0  0  0  0  0  0
    0.6538   -0.6979    0.0000 N   0  0  0  0  0  0  0  0  0  0  0  0
    1.1387   -0.0305    0.0000 N   0  0  0  0  0  0  0  0  0  0  0  0
    1.9233   -0.2854    0.0000 C   0  0  0  0  0  0  0  0  0  0  0  0
    2.6378    0.1271    0.0000 C   0  0  0  0  0  0  0  0  0  0  0  0
    3.3523   -0.2854    0.0000 C   0  0  0  0  0  0  0  0  0  0  0  0
    4.0668    0.1271    0.0000 C   0  0  0  0  0  0  0  0  0  0  0  0
    4.0668    0.9521    0.0000 C   0  0  0  0  0  0  0  0  0  0  0  0
    3.3523    1.3646    0.0000 Cl  0  0  0  0  0  0  0  0  0  0  0  0
    4.7812    1.3646    0.0000 C   0  0  0  0  0  0  0  0  0  0  0  0
    5.4957    0.9521    0.0000 C   0  0  0  0  0  0  0  0  0  0  0  0
    5.4957    0.1271    0.0000 C   0  0  0  0  0  0  0  0  0  0  0  0
    4.7812   -0.2854    0.0000 C   0  0  0  0  0  0  0  0  0  0  0  0
    4.7812   -1.1104    0.0000 Cl  0  0  0  0  0  0  0  0  0  0  0  0
    3.3523   -1.1104    0.0000 C   0  0  0  0  0  0  0  0  0  0  0  0
    2.6378   -1.5229    0.0000 C   0  0  0  0  0  0  0  0  0  0  0  0
    1.9233   -1.1104    0.0000 C   0  0  0  0  0  0  0  0  0  0  0  0
    0.3739   -3.7192    0.0000 C   0  0  0  0  0  0  0  0  0  0  0  0
    0.1190   -4.5038    0.0000 C   0  0  0  0  0  0  0  0  0  0  0  0
    0.4161   -5.9016    0.0000 H   0  0  0  0  0  0  0  0  0  0  0  0
   -1.4528   -7.0292    0.0000 H   0  0  0  0  0  0  0  0  0  0  0  0
   -2.0470   -4.2338    0.0000 H   0  0  0  0  0  0  0  0  0  0  0  0
   -1.5371   -2.6646    0.0000 H   0  0  0  0  0  0  0  0  0  0  0  0
    1.4358   -2.7631    0.0000 H   0  0  0  0  0  0  0  0  0  0  0  0
   -0.1712   -0.6979    0.0000 H   0  0  0  0  0  0  0  0  0  0  0  0
    2.6378    0.9521    0.0000 H   0  0  0  0  0  0  0  0  0  0  0  0
    4.7812    2.1896    0.0000 H   0  0  0  0  0  0  0  0  0  0  0  0
    6.2102    1.3646    0.0000 H   0  0  0  0  0  0  0  0  0  0  0  0
    6.2102   -0.2854    0.0000 H   0  0  0  0  0  0  0  0  0  0  0  0
    4.0668   -1.5229    0.0000 H   0  0  0  0  0  0  0  0  0  0  0  0
    2.6378   -2.3479    0.0000 H   0  0  0  0  0  0  0  0  0  0  0  0
    1.1809   -3.5477    0.0000 H   0  0  0  0  0  0  0  0  0  0  0  0
    0.6710   -5.1169    0.0000 H   0  0  0  0  0  0  0  0  0  0  0  0
  1  2  2  0  0  0  0
  2  3  1  0  0  0  0
  3  4  1  0  0  0  0
  2  5  1  0  0  0  0
  5  6  4  0  0  0  0
  6  7  4  0  0  0  0
  7  8  4  0  0  0  0
  8  9  1  0  0  0  0
  9 10  2  0  0  0  0
  9 11  1  0  0  0  0
 11 12  1  0  0  0  0
 12 13  4  0  0  0  0
 13 14  4  0  0  0  0
 14 15  4  0  0  0  0
 15 16  4  0  0  0  0
 16 17  4  0  0  0  0
 17 18  1  0  0  0  0
 18 19  4  0  0  0  0
 19 20  1  0  0  0  0
 19 21  4  0  0  0  0
 21 22  4  0  0  0  0
 22 23  4  0  0  0  0
 23 24  4  0  0  0  0
 18 24  4  0  0  0  0
 24 25  1  0  0  0  0
 17 26  4  0  0  0  0
 26 27  4  0  0  0  0
 27 28  4  0  0  0  0
 12 28  4  0  0  0  0
 15 28  4  0  0  0  0
  8 29  4  0  0  0  0
 29 30  4  0  0  0  0
  5 30  4  0  0  0  0
  3 31  1  0  0  0  0
  4 32  1  0  0  0  0
  6 33  1  0  0  0  0
  7 34  1  0  0  0  0
 11 35  1  0  0  0  0
 13 36  1  0  0  0  0
 16 37  1  0  0  0  0
 21 38  1  0  0  0  0
 22 39  1  0  0  0  0
 23 40  1  0  0  0  0
 26 41  1  0  0  0  0
 27 42  1  0  0  0  0
 29 43  1  0  0  0  0
 30 44  1  0  0  0  0
M  END
>  <Molecule ChEMBL ID>
CHEMBL4215505

>  <Compound Key>
7m

>  <Active>
0

>  <StandardizerResult>
Dearomatize (ID: Dearomatize)
Clear Stereo (ID: ClearStereo)
Wedge Clean (ID: WedgeClean)
Mesomerize (ID: Mesomerize)
Tautomerize (ID: Tautomerize)
Aromatize (ID: Aromatize)
Add Explicit Hydrogens (ID: AddExplicitH)
Neutralize (ID: Neutralize)
Clean 2D (ID: Clean2D)


$$$$

  Mrv1551102232217592D          

 45 46  0  0  0  0            999 V2000
    4.2849   -4.9100    0.0000 O   0  0  0  0  0  0  0  0  0  0  0  0
    4.2849   -4.0850    0.0000 C   0  0  0  0  0  0  0  0  0  0  0  0
    3.5705   -3.6725    0.0000 C   0  0  0  0  0  0  0  0  0  0  0  0
    2.8560   -4.0850    0.0000 C   0  0  0  0  0  0  0  0  0  0  0  0
    2.1415   -3.6725    0.0000 C   0  0  0  0  0  0  0  0  0  0  0  0
    1.4271   -4.0850    0.0000 C   0  0  0  0  0  0  0  0  0  0  0  0
    0.7126   -3.6725    0.0000 C   0  0  0  0  0  0  0  0  0  0  0  0
   -0.0411   -4.0080    0.0000 C   0  0  0  0  0  0  0  0  0  0  0  0
   -0.5931   -3.3949    0.0000 C   0  0  0  0  0  0  0  0  0  0  0  0
   -1.4136   -3.4812    0.0000 C   0  0  0  0  0  0  0  0  0  0  0  0
   -1.7492   -4.2348    0.0000 O   0  0  0  0  0  0  0  0  0  0  0  0
   -1.8985   -2.8137    0.0000 N   0  0  0  0  0  0  0  0  0  0  0  0
   -2.7190   -2.9000    0.0000 O   0  0  0  0  0  0  0  0  0  0  0  0
   -0.1806   -2.6805    0.0000 N   0  0  0  0  0  0  0  0  0  0  0  0
    0.6264   -2.8520    0.0000 O   0  0  0  0  0  0  0  0  0  0  0  0
    4.9994   -3.6725    0.0000 N   0  0  0  0  0  0  0  0  0  0  0  0
    5.7139   -4.0850    0.0000 C   0  0  0  0  0  0  0  0  0  0  0  0
    6.4284   -3.6725    0.0000 C   0  0  0  0  0  0  0  0  0  0  0  0
    7.1428   -4.0850    0.0000 C   0  0  0  0  0  0  0  0  0  0  0  0
    7.1428   -4.9100    0.0000 C   0  0  0  0  0  0  0  0  0  0  0  0
    6.4284   -5.3225    0.0000 C   0  0  0  0  0  0  0  0  0  0  0  0
    5.7139   -4.9100    0.0000 C   0  0  0  0  0  0  0  0  0  0  0  0
    3.9407   -2.9352    0.0000 H   0  0  0  0  0  0  0  0  0  0  0  0
    3.2002   -2.9352    0.0000 H   0  0  0  0  0  0  0  0  0  0  0  0
    2.4857   -4.8222    0.0000 H   0  0  0  0  0  0  0  0  0  0  0  0
    3.2263   -4.8222    0.0000 H   0  0  0  0  0  0  0  0  0  0  0  0
    2.5118   -2.9352    0.0000 H   0  0  0  0  0  0  0  0  0  0  0  0
    1.7713   -2.9352    0.0000 H   0  0  0  0  0  0  0  0  0  0  0  0
    1.0568   -4.8222    0.0000 H   0  0  0  0  0  0  0  0  0  0  0  0
    1.7973   -4.8222    0.0000 H   0  0  0  0  0  0  0  0  0  0  0  0
   -0.2126   -4.8150    0.0000 H   0  0  0  0  0  0  0  0  0  0  0  0
   -1.5630   -2.0600    0.0000 H   0  0  0  0  0  0  0  0  0  0  0  0
   -3.2039   -2.2325    0.0000 H   0  0  0  0  0  0  0  0  0  0  0  0
    4.9994   -2.8475    0.0000 H   0  0  0  0  0  0  0  0  0  0  0  0
    4.9994   -4.4975    0.0000 H   0  0  0  0  0  0  0  0  0  0  0  0
    6.7986   -2.9352    0.0000 H   0  0  0  0  0  0  0  0  0  0  0  0
    6.0581   -2.9352    0.0000 H   0  0  0  0  0  0  0  0  0  0  0  0
    7.9664   -4.0370    0.0000 H   0  0  0  0  0  0  0  0  0  0  0  0
    7.5962   -3.3957    0.0000 H   0  0  0  0  0  0  0  0  0  0  0  0
    7.5962   -5.5992    0.0000 H   0  0  0  0  0  0  0  0  0  0  0  0
    7.9664   -4.9579    0.0000 H   0  0  0  0  0  0  0  0  0  0  0  0
    6.0581   -6.0597    0.0000 H   0  0  0  0  0  0  0  0  0  0  0  0
    6.7986   -6.0597    0.0000 H   0  0  0  0  0  0  0  0  0  0  0  0
    5.0819   -5.4403    0.0000 H   0  0  0  0  0  0  0  0  0  0  0  0
    5.5706   -5.7224    0.0000 H   0  0  0  0  0  0  0  0  0  0  0  0
  1  2  2  0  0  0  0
  2  3  1  0  0  0  0
  3  4  1  0  0  0  0
  4  5  1  0  0  0  0
  5  6  1  0  0  0  0
  6  7  1  0  0  0  0
  7  8  4  0  0  0  0
  8  9  4  0  0  0  0
  9 10  1  0  0  0  0
 10 11  2  0  0  0  0
 10 12  1  0  0  0  0
 12 13  1  0  0  0  0
  9 14  4  0  0  0  0
 14 15  4  0  0  0  0
  7 15  4  0  0  0  0
  2 16  1  0  0  0  0
 16 17  1  0  0  0  0
 17 18  1  0  0  0  0
 18 19  1  0  0  0  0
 19 20  1  0  0  0  0
 20 21  1  0  0  0  0
 21 22  1  0  0  0  0
 17 22  1  0  0  0  0
  3 23  1  0  0  0  0
  3 24  1  0  0  0  0
  4 25  1  0  0  0  0
  4 26  1  0  0  0  0
  5 27  1  0  0  0  0
  5 28  1  0  0  0  0
  6 29  1  0  0  0  0
  6 30  1  0  0  0  0
  8 31  1  0  0  0  0
 12 32  1  0  0  0  0
 13 33  1  0  0  0  0
 16 34  1  0  0  0  0
 17 35  1  0  0  0  0
 18 36  1  0  0  0  0
 18 37  1  0  0  0  0
 19 38  1  0  0  0  0
 19 39  1  0  0  0  0
 20 40  1  0  0  0  0
 20 41  1  0  0  0  0
 21 42  1  0  0  0  0
 21 43  1  0  0  0  0
 22 44  1  0  0  0  0
 22 45  1  0  0  0  0
M  END
>  <Molecule ChEMBL ID>
CHEMBL466171

>  <Compound Key>
14

>  <Active>
0

>  <StandardizerResult>
Dearomatize (ID: Dearomatize)
Clear Stereo (ID: ClearStereo)
Wedge Clean (ID: WedgeClean)
Mesomerize (ID: Mesomerize)
Tautomerize (ID: Tautomerize)
Aromatize (ID: Aromatize)
Add Explicit Hydrogens (ID: AddExplicitH)
Neutralize (ID: Neutralize)
Clean 2D (ID: Clean2D)


$$$$
